Sul,PR,41,412750,41021,21ª RS TELEMACO BORBA,2021-01-01,53,"",532,2,17,0,"","",0
Sul,PR,41,412750,41021,21ª RS TELEMACO BORBA,2021-01-02,53,"",532,0,17,0,"","",0
Sul,PR,41,412750,41021,21ª RS TELEMACO BORBA,2021-01-03,1,"",532,0,17,0,"","",0
Sul,PR,41,412750,41021,21ª RS TELEMACO BORBA,2021-01-04,1,"",534,2,17,0,"","",0
Sul,PR,41,412750,41021,21ª RS TELEMACO BORBA,2021-01-05,1,"",536,2,17,0,"","",0
Sul,PR,41,412750,41021,21ª RS TELEMACO BORBA,2021-01-06,1,"",537,1,17,0,"","",0
Sul,PR,41,412750,41021,21ª RS TELEMACO BORBA,2021-01-07,1,"",577,40,17,0,"","",0
Sul,PR,41,412750,41021,21ª RS TELEMACO BORBA,2021-01-08,1,"",577,0,17,0,"","",0
Sul,PR,41,412750,41021,21ª RS TELEMACO BORBA,2021-01-09,1,"",615,38,17,0,"","",0
Sul,PR,41,412750,41021,21ª RS TELEMACO BORBA,2021-01-10,2,"",616,1,17,0,"","",0
Sul,PR,41,412750,41021,21ª RS TELEMACO BORBA,2021-01-11,2,"",616,0,17,0,"","",0
Sul,PR,41,412750,41021,21ª RS TELEMACO BORBA,2021-01-12,2,"",634,18,17,0,"","",0
Sul,PR,41,412750,41021,21ª RS TELEMACO BORBA,2021-01-13,2,"",638,4,17,0,"","",0
Sul,PR,41,412750,41021,21ª RS TELEMACO BORBA,2021-01-14,2,"",646,8,17,0,"","",0
Sul,PR,41,412750,41021,21ª RS TELEMACO BORBA,2021-01-15,2,"",647,1,17,0,"","",0
Sul,PR,41,412750,41021,21ª RS TELEMACO BORBA,2021-01-16,2,"",652,5,17,0,"","",0
Sul,PR,41,412750,41021,21ª RS TELEMACO BORBA,2021-01-17,3,"",654,2,17,0,"","",0
Sul,PR,41,412750,41021,21ª RS TELEMACO BORBA,2021-01-18,3,"",654,0,17,0,"","",0
Sul,PR,41,412750,41021,21ª RS TELEMACO BORBA,2021-01-19,3,"",657,3,17,0,"","",0
Sul,PR,41,412750,41021,21ª RS TELEMACO BORBA,2021-01-20,3,"",680,23,18,1,"","",0
Sul,PR,41,412750,41021,21ª RS TELEMACO BORBA,2021-01-21,3,"",694,14,19,1,"","",0
Sul,PR,41,412750,41021,21ª RS TELEMACO BORBA,2021-01-22,3,"",700,6,19,0,"","",0
Sul,PR,41,412750,41021,21ª RS TELEMACO BORBA,2021-01-23,3,"",706,6,19,0,"","",0
Sul,PR,41,412750,41021,21ª RS TELEMACO BORBA,2021-01-24,4,"",706,0,19,0,"","",0
Sul,PR,41,412750,41021,21ª RS TELEMACO BORBA,2021-01-25,4,"",707,1,19,0,"","",0
Sul,PR,41,412750,41021,21ª RS TELEMACO BORBA,2021-01-26,4,"",731,24,19,0,"","",0
Sul,PR,41,412750,41021,21ª RS TELEMACO BORBA,2021-01-27,4,"",738,7,19,0,"","",0
Sul,PR,41,412750,41021,21ª RS TELEMACO BORBA,2021-01-28,4,"",743,5,20,1,"","",0
Sul,PR,41,412750,41021,21ª RS TELEMACO BORBA,2021-01-29,4,"",753,10,21,1,"","",0
Sul,PR,41,412750,41021,21ª RS TELEMACO BORBA,2021-01-30,4,"",762,9,24,3,"","",0
Sul,PR,41,412750,41021,21ª RS TELEMACO BORBA,2021-01-31,5,"",763,1,24,0,"","",0
Sul,PR,41,412750,41021,21ª RS TELEMACO BORBA,2021-02-01,5,"",777,14,24,0,"","",0
Sul,PR,41,412750,41021,21ª RS TELEMACO BORBA,2021-02-02,5,"",784,7,24,0,"","",0
Sul,PR,41,412750,41021,21ª RS TELEMACO BORBA,2021-02-03,5,"",796,12,24,0,"","",0
Sul,PR,41,412750,41021,21ª RS TELEMACO BORBA,2021-02-04,5,"",799,3,24,0,"","",0
Sul,PR,41,412750,41021,21ª RS TELEMACO BORBA,2021-02-05,5,"",804,5,24,0,"","",0
Sul,PR,41,412750,41021,21ª RS TELEMACO BORBA,2021-02-06,5,"",810,6,24,0,"","",0
Sul,PR,41,412750,41021,21ª RS TELEMACO BORBA,2021-02-07,6,"",810,0,24,0,"","",0
Sul,PR,41,412750,41021,21ª RS TELEMACO BORBA,2021-02-08,6,"",813,3,24,0,"","",0
Sul,PR,41,412750,41021,21ª RS TELEMACO BORBA,2021-02-09,6,"",818,5,25,1,"","",0
Sul,PR,41,412750,41021,21ª RS TELEMACO BORBA,2021-02-10,6,"",828,10,25,0,"","",0
Sul,PR,41,412750,41021,21ª RS TELEMACO BORBA,2021-02-11,6,"",832,4,25,0,"","",0
Sul,PR,41,412750,41021,21ª RS TELEMACO BORBA,2021-02-12,6,"",832,0,25,0,"","",0
Sul,PR,41,412750,41021,21ª RS TELEMACO BORBA,2021-02-13,6,"",837,5,25,0,"","",0
Sul,PR,41,412750,41021,21ª RS TELEMACO BORBA,2021-02-14,7,"",837,0,25,0,"","",0
Sul,PR,41,412750,41021,21ª RS TELEMACO BORBA,2021-02-15,7,"",840,3,25,0,"","",0
Sul,PR,41,412750,41021,21ª RS TELEMACO BORBA,2021-02-16,7,"",843,3,25,0,"","",0
Sul,PR,41,412750,41021,21ª RS TELEMACO BORBA,2021-02-17,7,"",844,1,25,0,"","",0
Sul,PR,41,412750,41021,21ª RS TELEMACO BORBA,2021-02-18,7,"",865,21,25,0,"","",0
Sul,PR,41,412750,41021,21ª RS TELEMACO BORBA,2021-02-19,7,"",869,4,25,0,"","",0
Sul,PR,41,412750,41021,21ª RS TELEMACO BORBA,2021-02-20,7,"",873,4,25,0,"","",0
Sul,PR,41,412750,41021,21ª RS TELEMACO BORBA,2021-02-21,8,"",874,1,25,0,"","",0
Sul,PR,41,412750,41021,21ª RS TELEMACO BORBA,2021-02-22,8,"",878,4,25,0,"","",0
Sul,PR,41,412750,41021,21ª RS TELEMACO BORBA,2021-02-23,8,"",896,18,25,0,"","",0
Sul,PR,41,412750,41021,21ª RS TELEMACO BORBA,2021-02-24,8,"",910,14,25,0,"","",0
Sul,PR,41,412750,41021,21ª RS TELEMACO BORBA,2021-02-25,8,"",919,9,25,0,"","",0
Sul,PR,41,412750,41021,21ª RS TELEMACO BORBA,2021-02-26,8,"",937,18,25,0,"","",0
Sul,PR,41,412750,41021,21ª RS TELEMACO BORBA,2021-02-27,8,"",941,4,25,0,"","",0
Sul,PR,41,412750,41021,21ª RS TELEMACO BORBA,2021-02-28,9,"",949,8,25,0,"","",0
Sul,PR,41,412750,41021,21ª RS TELEMACO BORBA,2021-03-01,9,"",964,15,25,0,"","",0
Sul,PR,41,412750,41021,21ª RS TELEMACO BORBA,2021-03-02,9,"",989,25,27,2,"","",0
Sul,PR,41,412750,41021,21ª RS TELEMACO BORBA,2021-03-03,9,"",1024,35,27,0,"","",0
Sul,PR,41,412750,41021,21ª RS TELEMACO BORBA,2021-03-04,9,"",1030,6,27,0,"","",0
Sul,PR,41,412750,41021,21ª RS TELEMACO BORBA,2021-03-05,9,"",1039,9,27,0,"","",0
Sul,PR,41,412750,41021,21ª RS TELEMACO BORBA,2021-03-06,9,"",1071,32,28,1,"","",0
Sul,PR,41,412750,41021,21ª RS TELEMACO BORBA,2021-03-07,10,"",1088,17,28,0,"","",0
Sul,PR,41,412750,41021,21ª RS TELEMACO BORBA,2021-03-08,10,"",1090,2,28,0,"","",0
Sul,PR,41,412750,41021,21ª RS TELEMACO BORBA,2021-03-09,10,"",1098,8,28,0,"","",0
Sul,PR,41,412750,41021,21ª RS TELEMACO BORBA,2021-03-10,10,"",1108,10,28,0,"","",0
Sul,PR,41,412750,41021,21ª RS TELEMACO BORBA,2021-03-11,10,"",1117,9,28,0,"","",0
Sul,PR,41,412750,41021,21ª RS TELEMACO BORBA,2021-03-12,10,"",1130,13,28,0,"","",0
Sul,PR,41,412750,41021,21ª RS TELEMACO BORBA,2021-03-13,10,"",1145,15,28,0,"","",0
Sul,PR,41,412750,41021,21ª RS TELEMACO BORBA,2021-03-14,11,"",1147,2,28,0,"","",0
Sul,PR,41,412750,41021,21ª RS TELEMACO BORBA,2021-03-15,11,"",1147,0,28,0,"","",0
Sul,PR,41,412750,41021,21ª RS TELEMACO BORBA,2021-03-16,11,"",1151,4,28,0,"","",0
Sul,PR,41,412750,41021,21ª RS TELEMACO BORBA,2021-03-17,11,"",1159,8,32,4,"","",0
Sul,PR,41,412750,41021,21ª RS TELEMACO BORBA,2021-03-18,11,"",1176,17,32,0,"","",0
Sul,PR,41,412750,41021,21ª RS TELEMACO BORBA,2021-03-19,11,"",1187,11,32,0,"","",0
Sul,PR,41,412750,41021,21ª RS TELEMACO BORBA,2021-03-20,11,"",1209,22,33,1,"","",0
Sul,PR,41,412750,41021,21ª RS TELEMACO BORBA,2021-03-21,12,"",1220,11,33,0,"","",0
Sul,PR,41,412750,41021,21ª RS TELEMACO BORBA,2021-03-22,12,"",1222,2,33,0,"","",0
Sul,PR,41,412750,41021,21ª RS TELEMACO BORBA,2021-03-23,12,"",1249,27,33,0,"","",0
Sul,PR,41,412750,41021,21ª RS TELEMACO BORBA,2021-03-24,12,"",1287,38,33,0,"","",0
Sul,PR,41,412750,41021,21ª RS TELEMACO BORBA,2021-03-25,12,"",1332,45,38,5,"","",0
Sul,PR,41,412750,41021,21ª RS TELEMACO BORBA,2021-03-26,12,"",1372,40,38,0,"","",0
Sul,PR,41,412750,41021,21ª RS TELEMACO BORBA,2021-03-27,12,"",1445,73,39,1,"","",0
Sul,PR,41,412750,41021,21ª RS TELEMACO BORBA,2021-03-28,13,"",1457,12,39,0,"","",0
Sul,PR,41,412750,41021,21ª RS TELEMACO BORBA,2021-03-29,13,"",1459,2,39,0,"","",0
Sul,PR,41,412750,41021,21ª RS TELEMACO BORBA,2021-03-30,13,"",1468,9,39,0,"","",0
Sul,PR,41,412750,41021,21ª RS TELEMACO BORBA,2021-03-31,13,"",1471,3,39,0,"","",0
Sul,PR,41,412750,41021,21ª RS TELEMACO BORBA,2021-04-01,13,"",1478,7,40,1,"","",0
Sul,PR,41,412750,41021,21ª RS TELEMACO BORBA,2021-04-02,13,"",1489,11,42,2,"","",0
Sul,PR,41,412750,41021,21ª RS TELEMACO BORBA,2021-04-03,13,"",1490,1,42,0,"","",0
Sul,PR,41,412750,41021,21ª RS TELEMACO BORBA,2021-04-04,14,"",1492,2,42,0,"","",0
Sul,PR,41,412750,41021,21ª RS TELEMACO BORBA,2021-04-05,14,"",1493,1,42,0,"","",0
Sul,PR,41,412750,41021,21ª RS TELEMACO BORBA,2021-04-06,14,"",1499,6,43,1,"","",0
Sul,PR,41,412750,41021,21ª RS TELEMACO BORBA,2021-04-07,14,"",1507,8,43,0,"","",0
Sul,PR,41,412750,41021,21ª RS TELEMACO BORBA,2021-04-08,14,"",1515,8,45,2,"","",0
Sul,PR,41,412750,41021,21ª RS TELEMACO BORBA,2021-04-09,14,"",1564,49,45,0,"","",0
Sul,PR,41,412750,41021,21ª RS TELEMACO BORBA,2021-04-10,14,"",1607,43,45,0,"","",0
Sul,PR,41,412750,41021,21ª RS TELEMACO BORBA,2021-04-11,15,"",1612,5,45,0,"","",0
Sul,PR,41,412750,41021,21ª RS TELEMACO BORBA,2021-04-12,15,"",1613,1,46,1,"","",0
Sul,PR,41,412750,41021,21ª RS TELEMACO BORBA,2021-04-13,15,"",1649,36,47,1,"","",0
Sul,PR,41,412750,41021,21ª RS TELEMACO BORBA,2021-04-14,15,"",1660,11,50,3,"","",0
Sul,PR,41,412750,41021,21ª RS TELEMACO BORBA,2021-04-15,15,"",1675,15,51,1,"","",0
Sul,PR,41,412750,41021,21ª RS TELEMACO BORBA,2021-04-16,15,"",1723,48,51,0,"","",0
Sul,PR,41,412750,41021,21ª RS TELEMACO BORBA,2021-04-17,15,"",1736,13,52,1,"","",0
Sul,PR,41,412750,41021,21ª RS TELEMACO BORBA,2021-04-18,16,"",1741,5,54,2,"","",0
Sul,PR,41,412750,41021,21ª RS TELEMACO BORBA,2021-04-19,16,"",1744,3,54,0,"","",0
Sul,PR,41,412750,41021,21ª RS TELEMACO BORBA,2021-04-20,16,"",1785,41,54,0,"","",0
Sul,PR,41,412750,41021,21ª RS TELEMACO BORBA,2021-04-21,16,"",1807,22,54,0,"","",0
Sul,PR,41,412750,41021,21ª RS TELEMACO BORBA,2021-04-22,16,"",1825,18,54,0,"","",0
Sul,PR,41,412750,41021,21ª RS TELEMACO BORBA,2021-04-23,16,"",1830,5,54,0,"","",0
Sul,PR,41,412750,41021,21ª RS TELEMACO BORBA,2021-04-24,16,"",1844,14,54,0,"","",0
Sul,PR,41,412750,41021,21ª RS TELEMACO BORBA,2021-04-25,17,"",1848,4,54,0,"","",0
Sul,PR,41,412750,41021,21ª RS TELEMACO BORBA,2021-04-26,17,"",1864,16,54,0,"","",0
Sul,PR,41,412750,41021,21ª RS TELEMACO BORBA,2021-04-27,17,"",1878,14,54,0,"","",0
Sul,PR,41,412750,41021,21ª RS TELEMACO BORBA,2021-04-28,17,"",1895,17,54,0,"","",0
Sul,PR,41,412750,41021,21ª RS TELEMACO BORBA,2021-04-29,17,"",1906,11,54,0,"","",0
Sul,PR,41,412750,41021,21ª RS TELEMACO BORBA,2021-04-30,17,"",1918,12,54,0,"","",0
Sul,PR,41,412750,41021,21ª RS TELEMACO BORBA,2021-05-01,17,"",1937,19,54,0,"","",0
Sul,PR,41,412750,41021,21ª RS TELEMACO BORBA,2021-05-02,18,"",1940,3,54,0,"","",0
Sul,PR,41,412750,41021,21ª RS TELEMACO BORBA,2021-05-03,18,"",1945,5,54,0,"","",0
Sul,PR,41,412750,41021,21ª RS TELEMACO BORBA,2021-05-04,18,"",1954,9,55,1,"","",0
Sul,PR,41,412750,41021,21ª RS TELEMACO BORBA,2021-05-05,18,"",1986,32,56,1,"","",0
Sul,PR,41,412750,41021,21ª RS TELEMACO BORBA,2021-05-06,18,"",1999,13,57,1,"","",0
Sul,PR,41,412750,41021,21ª RS TELEMACO BORBA,2021-05-07,18,"",2019,20,57,0,"","",0
Sul,PR,41,412750,41021,21ª RS TELEMACO BORBA,2021-05-08,18,"",2032,13,58,1,"","",0
Sul,PR,41,412750,41021,21ª RS TELEMACO BORBA,2021-05-09,19,"",2033,1,58,0,"","",0
Sul,PR,41,412750,41021,21ª RS TELEMACO BORBA,2021-05-10,19,"",2037,4,60,2,"","",0
Sul,PR,41,412750,41021,21ª RS TELEMACO BORBA,2021-05-11,19,"",2039,2,60,0,"","",0
Sul,PR,41,412750,41021,21ª RS TELEMACO BORBA,2021-05-12,19,"",2045,6,60,0,"","",0
Sul,PR,41,412750,41021,21ª RS TELEMACO BORBA,2021-05-13,19,"",2057,12,60,0,"","",0
Sul,PR,41,412750,41021,21ª RS TELEMACO BORBA,2021-05-14,19,"",2071,14,60,0,"","",0
Sul,PR,41,412750,41021,21ª RS TELEMACO BORBA,2021-05-15,19,"",2079,8,62,2,"","",0
Sul,PR,41,412750,41021,21ª RS TELEMACO BORBA,2021-05-16,20,"",2086,7,62,0,"","",0
Sul,PR,41,412750,41021,21ª RS TELEMACO BORBA,2021-05-17,20,"",2088,2,62,0,"","",0
Sul,PR,41,412750,41021,21ª RS TELEMACO BORBA,2021-05-18,20,"",2104,16,62,0,"","",0
Sul,PR,41,412750,41021,21ª RS TELEMACO BORBA,2021-05-19,20,"",2110,6,64,2,"","",0
Sul,PR,41,412750,41021,21ª RS TELEMACO BORBA,2021-05-20,20,"",2116,6,64,0,"","",0
Sul,PR,41,412750,41021,21ª RS TELEMACO BORBA,2021-05-21,20,"",2125,9,64,0,"","",0
Sul,PR,41,412750,41021,21ª RS TELEMACO BORBA,2021-05-22,20,"",2137,12,64,0,"","",0
Sul,PR,41,412750,41021,21ª RS TELEMACO BORBA,2021-05-23,21,"",2138,1,64,0,"","",0
Sul,PR,41,412750,41021,21ª RS TELEMACO BORBA,2021-05-24,21,"",2142,4,64,0,"","",0
Sul,PR,41,412750,41021,21ª RS TELEMACO BORBA,2021-05-25,21,"",2160,18,64,0,"","",0
Sul,PR,41,412750,41021,21ª RS TELEMACO BORBA,2021-05-26,21,"",2167,7,64,0,"","",0
Sul,PR,41,412750,41021,21ª RS TELEMACO BORBA,2021-05-27,21,"",2175,8,64,0,"","",0
Sul,PR,41,412750,41021,21ª RS TELEMACO BORBA,2021-05-28,21,"",2184,9,67,3,"","",0
Sul,PR,41,412750,41021,21ª RS TELEMACO BORBA,2021-05-29,21,"",2195,11,67,0,"","",0
Sul,PR,41,412750,41021,21ª RS TELEMACO BORBA,2021-05-30,22,"",2195,0,67,0,"","",0
Sul,PR,41,412750,41021,21ª RS TELEMACO BORBA,2021-05-31,22,"",2195,0,67,0,"","",0
Sul,PR,41,412750,41021,21ª RS TELEMACO BORBA,2021-06-01,22,"",2198,3,69,2,"","",0
Sul,PR,41,412750,41021,21ª RS TELEMACO BORBA,2021-06-02,22,"",2212,14,69,0,"","",0
Sul,PR,41,412750,41021,21ª RS TELEMACO BORBA,2021-06-03,22,"",2225,13,69,0,"","",0
Sul,PR,41,412750,41021,21ª RS TELEMACO BORBA,2021-06-04,22,"",2227,2,69,0,"","",0
Sul,PR,41,412750,41021,21ª RS TELEMACO BORBA,2021-06-05,22,"",2229,2,69,0,"","",0
Sul,PR,41,412750,41021,21ª RS TELEMACO BORBA,2021-06-06,23,"",2235,6,69,0,"","",0
Sul,PR,41,412750,41021,21ª RS TELEMACO BORBA,2021-06-07,23,"",2247,12,69,0,"","",0
Sul,PR,41,412750,41021,21ª RS TELEMACO BORBA,2021-06-08,23,"",2250,3,71,2,"","",0
Sul,PR,41,412750,41021,21ª RS TELEMACO BORBA,2021-06-09,23,"",2271,21,72,1,"","",0
Sul,PR,41,412750,41021,21ª RS TELEMACO BORBA,2021-06-10,23,"",2279,8,73,1,"","",0
Sul,PR,41,412750,41021,21ª RS TELEMACO BORBA,2021-06-11,23,"",2293,14,73,0,"","",0
Sul,PR,41,412750,41021,21ª RS TELEMACO BORBA,2021-06-12,23,"",2296,3,73,0,"","",0
Sul,PR,41,412750,41021,21ª RS TELEMACO BORBA,2021-06-13,24,"",2302,6,73,0,"","",0
Sul,PR,41,412750,41021,21ª RS TELEMACO BORBA,2021-06-14,24,"",2310,8,73,0,"","",0
Sul,PR,41,412750,41021,21ª RS TELEMACO BORBA,2021-06-15,24,"",2330,20,73,0,"","",0
Sul,PR,41,412750,41021,21ª RS TELEMACO BORBA,2021-06-16,24,"",2340,10,75,2,"","",0
Sul,PR,41,412750,41021,21ª RS TELEMACO BORBA,2021-06-17,24,"",2350,10,75,0,"","",0
Sul,PR,41,412750,41021,21ª RS TELEMACO BORBA,2021-06-18,24,"",2366,16,77,2,"","",0
Sul,PR,41,412750,41021,21ª RS TELEMACO BORBA,2021-06-19,24,"",2383,17,77,0,"","",0
Sul,PR,41,412750,41021,21ª RS TELEMACO BORBA,2021-06-20,25,"",2402,19,77,0,"","",0
Sul,PR,41,412750,41021,21ª RS TELEMACO BORBA,2021-06-21,25,"",2422,20,77,0,"","",0
Sul,PR,41,412750,41021,21ª RS TELEMACO BORBA,2021-06-22,25,"",2448,26,77,0,"","",0
Sul,PR,41,412750,41021,21ª RS TELEMACO BORBA,2021-06-23,25,"",2460,12,77,0,"","",0
Sul,PR,41,412750,41021,21ª RS TELEMACO BORBA,2021-06-24,25,"",2465,5,77,0,"","",0
Sul,PR,41,412750,41021,21ª RS TELEMACO BORBA,2021-06-25,25,"",2475,10,77,0,"","",0
Sul,PR,41,412750,41021,21ª RS TELEMACO BORBA,2021-06-26,25,"",2478,3,77,0,"","",0
Sul,PR,41,412750,41021,21ª RS TELEMACO BORBA,2021-06-27,26,"",2479,1,77,0,"","",0
Sul,PR,41,412750,41021,21ª RS TELEMACO BORBA,2021-06-28,26,"",2484,5,77,0,"","",0
Sul,PR,41,412750,41021,21ª RS TELEMACO BORBA,2021-06-29,26,"",2495,11,77,0,"","",0
Sul,PR,41,412750,41021,21ª RS TELEMACO BORBA,2021-06-30,26,"",2504,9,78,1,"","",0
