Sul,PR,41,411007,41021,21ª RS TELEMACO BORBA,2021-07-01,26,"",1847,12,48,1,"","",0
Sul,PR,41,411007,41021,21ª RS TELEMACO BORBA,2021-07-02,26,"",1847,0,49,1,"","",0
Sul,PR,41,411007,41021,21ª RS TELEMACO BORBA,2021-07-03,26,"",1853,6,50,1,"","",0
Sul,PR,41,411007,41021,21ª RS TELEMACO BORBA,2021-07-04,27,"",1854,1,50,0,"","",0
Sul,PR,41,411007,41021,21ª RS TELEMACO BORBA,2021-07-05,27,"",1857,3,51,1,"","",0
Sul,PR,41,411007,41021,21ª RS TELEMACO BORBA,2021-07-06,27,"",1858,1,51,0,"","",0
