Sul,PR,41,412170,41021,21ª RS TELEMACO BORBA,2021-07-01,26,"",3023,15,58,0,"","",0
Sul,PR,41,412170,41021,21ª RS TELEMACO BORBA,2021-07-02,26,"",3027,4,58,0,"","",0
Sul,PR,41,412170,41021,21ª RS TELEMACO BORBA,2021-07-03,26,"",3037,10,60,2,"","",0
Sul,PR,41,412170,41021,21ª RS TELEMACO BORBA,2021-07-04,27,"",3039,2,60,0,"","",0
Sul,PR,41,412170,41021,21ª RS TELEMACO BORBA,2021-07-05,27,"",3046,7,60,0,"","",0
Sul,PR,41,412170,41021,21ª RS TELEMACO BORBA,2021-07-06,27,"",3057,11,60,0,"","",0
