Sul,PR,41,411007,41021,21ª RS TELEMACO BORBA,2021-01-01,53,"",615,0,5,0,"","",0
Sul,PR,41,411007,41021,21ª RS TELEMACO BORBA,2021-01-02,53,"",615,0,5,0,"","",0
Sul,PR,41,411007,41021,21ª RS TELEMACO BORBA,2021-01-03,1,"",615,0,5,0,"","",0
Sul,PR,41,411007,41021,21ª RS TELEMACO BORBA,2021-01-04,1,"",615,0,5,0,"","",0
Sul,PR,41,411007,41021,21ª RS TELEMACO BORBA,2021-01-05,1,"",628,13,5,0,"","",0
Sul,PR,41,411007,41021,21ª RS TELEMACO BORBA,2021-01-06,1,"",628,0,5,0,"","",0
Sul,PR,41,411007,41021,21ª RS TELEMACO BORBA,2021-01-07,1,"",682,54,5,0,"","",0
Sul,PR,41,411007,41021,21ª RS TELEMACO BORBA,2021-01-08,1,"",682,0,5,0,"","",0
Sul,PR,41,411007,41021,21ª RS TELEMACO BORBA,2021-01-09,1,"",687,5,5,0,"","",0
Sul,PR,41,411007,41021,21ª RS TELEMACO BORBA,2021-01-10,2,"",688,1,5,0,"","",0
Sul,PR,41,411007,41021,21ª RS TELEMACO BORBA,2021-01-11,2,"",688,0,5,0,"","",0
Sul,PR,41,411007,41021,21ª RS TELEMACO BORBA,2021-01-12,2,"",710,22,5,0,"","",0
Sul,PR,41,411007,41021,21ª RS TELEMACO BORBA,2021-01-13,2,"",708,-2,5,0,"","",0
Sul,PR,41,411007,41021,21ª RS TELEMACO BORBA,2021-01-14,2,"",710,2,5,0,"","",0
Sul,PR,41,411007,41021,21ª RS TELEMACO BORBA,2021-01-15,2,"",718,8,6,1,"","",0
Sul,PR,41,411007,41021,21ª RS TELEMACO BORBA,2021-01-16,2,"",723,5,7,1,"","",0
Sul,PR,41,411007,41021,21ª RS TELEMACO BORBA,2021-01-17,3,"",732,9,7,0,"","",0
Sul,PR,41,411007,41021,21ª RS TELEMACO BORBA,2021-01-18,3,"",733,1,7,0,"","",0
Sul,PR,41,411007,41021,21ª RS TELEMACO BORBA,2021-01-19,3,"",741,8,8,1,"","",0
Sul,PR,41,411007,41021,21ª RS TELEMACO BORBA,2021-01-20,3,"",745,4,8,0,"","",0
Sul,PR,41,411007,41021,21ª RS TELEMACO BORBA,2021-01-21,3,"",747,2,8,0,"","",0
Sul,PR,41,411007,41021,21ª RS TELEMACO BORBA,2021-01-22,3,"",747,0,8,0,"","",0
Sul,PR,41,411007,41021,21ª RS TELEMACO BORBA,2021-01-23,3,"",751,4,8,0,"","",0
Sul,PR,41,411007,41021,21ª RS TELEMACO BORBA,2021-01-24,4,"",751,0,9,1,"","",0
Sul,PR,41,411007,41021,21ª RS TELEMACO BORBA,2021-01-25,4,"",751,0,9,0,"","",0
Sul,PR,41,411007,41021,21ª RS TELEMACO BORBA,2021-01-26,4,"",771,20,9,0,"","",0
Sul,PR,41,411007,41021,21ª RS TELEMACO BORBA,2021-01-27,4,"",772,1,9,0,"","",0
Sul,PR,41,411007,41021,21ª RS TELEMACO BORBA,2021-01-28,4,"",776,4,9,0,"","",0
Sul,PR,41,411007,41021,21ª RS TELEMACO BORBA,2021-01-29,4,"",785,9,9,0,"","",0
Sul,PR,41,411007,41021,21ª RS TELEMACO BORBA,2021-01-30,4,"",791,6,9,0,"","",0
Sul,PR,41,411007,41021,21ª RS TELEMACO BORBA,2021-01-31,5,"",797,6,9,0,"","",0
Sul,PR,41,411007,41021,21ª RS TELEMACO BORBA,2021-02-01,5,"",800,3,9,0,"","",0
Sul,PR,41,411007,41021,21ª RS TELEMACO BORBA,2021-02-02,5,"",811,11,9,0,"","",0
Sul,PR,41,411007,41021,21ª RS TELEMACO BORBA,2021-02-03,5,"",814,3,9,0,"","",0
Sul,PR,41,411007,41021,21ª RS TELEMACO BORBA,2021-02-04,5,"",815,1,9,0,"","",0
Sul,PR,41,411007,41021,21ª RS TELEMACO BORBA,2021-02-05,5,"",816,1,9,0,"","",0
Sul,PR,41,411007,41021,21ª RS TELEMACO BORBA,2021-02-06,5,"",822,6,9,0,"","",0
Sul,PR,41,411007,41021,21ª RS TELEMACO BORBA,2021-02-07,6,"",822,0,9,0,"","",0
Sul,PR,41,411007,41021,21ª RS TELEMACO BORBA,2021-02-08,6,"",823,1,9,0,"","",0
Sul,PR,41,411007,41021,21ª RS TELEMACO BORBA,2021-02-09,6,"",842,19,9,0,"","",0
Sul,PR,41,411007,41021,21ª RS TELEMACO BORBA,2021-02-10,6,"",843,1,9,0,"","",0
Sul,PR,41,411007,41021,21ª RS TELEMACO BORBA,2021-02-11,6,"",845,2,9,0,"","",0
Sul,PR,41,411007,41021,21ª RS TELEMACO BORBA,2021-02-12,6,"",853,8,10,1,"","",0
Sul,PR,41,411007,41021,21ª RS TELEMACO BORBA,2021-02-13,6,"",854,1,10,0,"","",0
Sul,PR,41,411007,41021,21ª RS TELEMACO BORBA,2021-02-14,7,"",854,0,10,0,"","",0
Sul,PR,41,411007,41021,21ª RS TELEMACO BORBA,2021-02-15,7,"",867,13,10,0,"","",0
Sul,PR,41,411007,41021,21ª RS TELEMACO BORBA,2021-02-16,7,"",868,1,11,1,"","",0
Sul,PR,41,411007,41021,21ª RS TELEMACO BORBA,2021-02-17,7,"",869,1,11,0,"","",0
Sul,PR,41,411007,41021,21ª RS TELEMACO BORBA,2021-02-18,7,"",869,0,11,0,"","",0
Sul,PR,41,411007,41021,21ª RS TELEMACO BORBA,2021-02-19,7,"",878,9,11,0,"","",0
Sul,PR,41,411007,41021,21ª RS TELEMACO BORBA,2021-02-20,7,"",878,0,11,0,"","",0
Sul,PR,41,411007,41021,21ª RS TELEMACO BORBA,2021-02-21,8,"",879,1,11,0,"","",0
Sul,PR,41,411007,41021,21ª RS TELEMACO BORBA,2021-02-22,8,"",879,0,11,0,"","",0
Sul,PR,41,411007,41021,21ª RS TELEMACO BORBA,2021-02-23,8,"",882,3,12,1,"","",0
Sul,PR,41,411007,41021,21ª RS TELEMACO BORBA,2021-02-24,8,"",892,10,13,1,"","",0
Sul,PR,41,411007,41021,21ª RS TELEMACO BORBA,2021-02-25,8,"",892,0,13,0,"","",0
Sul,PR,41,411007,41021,21ª RS TELEMACO BORBA,2021-02-26,8,"",899,7,13,0,"","",0
Sul,PR,41,411007,41021,21ª RS TELEMACO BORBA,2021-02-27,8,"",901,2,13,0,"","",0
Sul,PR,41,411007,41021,21ª RS TELEMACO BORBA,2021-02-28,9,"",902,1,13,0,"","",0
Sul,PR,41,411007,41021,21ª RS TELEMACO BORBA,2021-03-01,9,"",902,0,13,0,"","",0
Sul,PR,41,411007,41021,21ª RS TELEMACO BORBA,2021-03-02,9,"",902,0,13,0,"","",0
Sul,PR,41,411007,41021,21ª RS TELEMACO BORBA,2021-03-03,9,"",906,4,13,0,"","",0
Sul,PR,41,411007,41021,21ª RS TELEMACO BORBA,2021-03-04,9,"",912,6,13,0,"","",0
Sul,PR,41,411007,41021,21ª RS TELEMACO BORBA,2021-03-05,9,"",912,0,13,0,"","",0
Sul,PR,41,411007,41021,21ª RS TELEMACO BORBA,2021-03-06,9,"",915,3,13,0,"","",0
Sul,PR,41,411007,41021,21ª RS TELEMACO BORBA,2021-03-07,10,"",919,4,13,0,"","",0
Sul,PR,41,411007,41021,21ª RS TELEMACO BORBA,2021-03-08,10,"",919,0,13,0,"","",0
Sul,PR,41,411007,41021,21ª RS TELEMACO BORBA,2021-03-09,10,"",924,5,13,0,"","",0
Sul,PR,41,411007,41021,21ª RS TELEMACO BORBA,2021-03-10,10,"",930,6,13,0,"","",0
Sul,PR,41,411007,41021,21ª RS TELEMACO BORBA,2021-03-11,10,"",931,1,13,0,"","",0
Sul,PR,41,411007,41021,21ª RS TELEMACO BORBA,2021-03-12,10,"",932,1,13,0,"","",0
Sul,PR,41,411007,41021,21ª RS TELEMACO BORBA,2021-03-13,10,"",934,2,13,0,"","",0
Sul,PR,41,411007,41021,21ª RS TELEMACO BORBA,2021-03-14,11,"",935,1,13,0,"","",0
Sul,PR,41,411007,41021,21ª RS TELEMACO BORBA,2021-03-15,11,"",935,0,13,0,"","",0
Sul,PR,41,411007,41021,21ª RS TELEMACO BORBA,2021-03-16,11,"",936,1,13,0,"","",0
Sul,PR,41,411007,41021,21ª RS TELEMACO BORBA,2021-03-17,11,"",938,2,13,0,"","",0
Sul,PR,41,411007,41021,21ª RS TELEMACO BORBA,2021-03-18,11,"",942,4,13,0,"","",0
Sul,PR,41,411007,41021,21ª RS TELEMACO BORBA,2021-03-19,11,"",945,3,15,2,"","",0
Sul,PR,41,411007,41021,21ª RS TELEMACO BORBA,2021-03-20,11,"",945,0,15,0,"","",0
Sul,PR,41,411007,41021,21ª RS TELEMACO BORBA,2021-03-21,12,"",945,0,15,0,"","",0
Sul,PR,41,411007,41021,21ª RS TELEMACO BORBA,2021-03-22,12,"",945,0,15,0,"","",0
Sul,PR,41,411007,41021,21ª RS TELEMACO BORBA,2021-03-23,12,"",949,4,15,0,"","",0
Sul,PR,41,411007,41021,21ª RS TELEMACO BORBA,2021-03-24,12,"",955,6,15,0,"","",0
Sul,PR,41,411007,41021,21ª RS TELEMACO BORBA,2021-03-25,12,"",965,10,15,0,"","",0
Sul,PR,41,411007,41021,21ª RS TELEMACO BORBA,2021-03-26,12,"",965,0,15,0,"","",0
Sul,PR,41,411007,41021,21ª RS TELEMACO BORBA,2021-03-27,12,"",969,4,15,0,"","",0
Sul,PR,41,411007,41021,21ª RS TELEMACO BORBA,2021-03-28,13,"",969,0,15,0,"","",0
Sul,PR,41,411007,41021,21ª RS TELEMACO BORBA,2021-03-29,13,"",972,3,15,0,"","",0
Sul,PR,41,411007,41021,21ª RS TELEMACO BORBA,2021-03-30,13,"",974,2,15,0,"","",0
Sul,PR,41,411007,41021,21ª RS TELEMACO BORBA,2021-03-31,13,"",974,0,15,0,"","",0
Sul,PR,41,411007,41021,21ª RS TELEMACO BORBA,2021-04-01,13,"",983,9,15,0,"","",0
Sul,PR,41,411007,41021,21ª RS TELEMACO BORBA,2021-04-02,13,"",983,0,15,0,"","",0
Sul,PR,41,411007,41021,21ª RS TELEMACO BORBA,2021-04-03,13,"",984,1,15,0,"","",0
Sul,PR,41,411007,41021,21ª RS TELEMACO BORBA,2021-04-04,14,"",985,1,15,0,"","",0
Sul,PR,41,411007,41021,21ª RS TELEMACO BORBA,2021-04-05,14,"",987,2,15,0,"","",0
Sul,PR,41,411007,41021,21ª RS TELEMACO BORBA,2021-04-06,14,"",993,6,15,0,"","",0
Sul,PR,41,411007,41021,21ª RS TELEMACO BORBA,2021-04-07,14,"",998,5,15,0,"","",0
Sul,PR,41,411007,41021,21ª RS TELEMACO BORBA,2021-04-08,14,"",1008,10,15,0,"","",0
Sul,PR,41,411007,41021,21ª RS TELEMACO BORBA,2021-04-09,14,"",1023,15,15,0,"","",0
Sul,PR,41,411007,41021,21ª RS TELEMACO BORBA,2021-04-10,14,"",1039,16,16,1,"","",0
Sul,PR,41,411007,41021,21ª RS TELEMACO BORBA,2021-04-11,15,"",1040,1,16,0,"","",0
Sul,PR,41,411007,41021,21ª RS TELEMACO BORBA,2021-04-12,15,"",1041,1,16,0,"","",0
Sul,PR,41,411007,41021,21ª RS TELEMACO BORBA,2021-04-13,15,"",1052,11,16,0,"","",0
Sul,PR,41,411007,41021,21ª RS TELEMACO BORBA,2021-04-14,15,"",1059,7,16,0,"","",0
Sul,PR,41,411007,41021,21ª RS TELEMACO BORBA,2021-04-15,15,"",1075,16,16,0,"","",0
Sul,PR,41,411007,41021,21ª RS TELEMACO BORBA,2021-04-16,15,"",1091,16,16,0,"","",0
Sul,PR,41,411007,41021,21ª RS TELEMACO BORBA,2021-04-17,15,"",1118,27,16,0,"","",0
Sul,PR,41,411007,41021,21ª RS TELEMACO BORBA,2021-04-18,16,"",1121,3,16,0,"","",0
Sul,PR,41,411007,41021,21ª RS TELEMACO BORBA,2021-04-19,16,"",1122,1,16,0,"","",0
Sul,PR,41,411007,41021,21ª RS TELEMACO BORBA,2021-04-20,16,"",1142,20,16,0,"","",0
Sul,PR,41,411007,41021,21ª RS TELEMACO BORBA,2021-04-21,16,"",1155,13,16,0,"","",0
Sul,PR,41,411007,41021,21ª RS TELEMACO BORBA,2021-04-22,16,"",1177,22,17,1,"","",0
Sul,PR,41,411007,41021,21ª RS TELEMACO BORBA,2021-04-23,16,"",1185,8,17,0,"","",0
Sul,PR,41,411007,41021,21ª RS TELEMACO BORBA,2021-04-24,16,"",1203,18,17,0,"","",0
Sul,PR,41,411007,41021,21ª RS TELEMACO BORBA,2021-04-25,17,"",1204,1,17,0,"","",0
Sul,PR,41,411007,41021,21ª RS TELEMACO BORBA,2021-04-26,17,"",1213,9,18,1,"","",0
Sul,PR,41,411007,41021,21ª RS TELEMACO BORBA,2021-04-27,17,"",1222,9,26,8,"","",0
Sul,PR,41,411007,41021,21ª RS TELEMACO BORBA,2021-04-28,17,"",1233,11,26,0,"","",0
Sul,PR,41,411007,41021,21ª RS TELEMACO BORBA,2021-04-29,17,"",1244,11,26,0,"","",0
Sul,PR,41,411007,41021,21ª RS TELEMACO BORBA,2021-04-30,17,"",1259,15,27,1,"","",0
Sul,PR,41,411007,41021,21ª RS TELEMACO BORBA,2021-05-01,17,"",1288,29,27,0,"","",0
Sul,PR,41,411007,41021,21ª RS TELEMACO BORBA,2021-05-02,18,"",1299,11,29,2,"","",0
Sul,PR,41,411007,41021,21ª RS TELEMACO BORBA,2021-05-03,18,"",1299,0,29,0,"","",0
Sul,PR,41,411007,41021,21ª RS TELEMACO BORBA,2021-05-04,18,"",1323,24,29,0,"","",0
Sul,PR,41,411007,41021,21ª RS TELEMACO BORBA,2021-05-05,18,"",1350,27,29,0,"","",0
Sul,PR,41,411007,41021,21ª RS TELEMACO BORBA,2021-05-06,18,"",1358,8,29,0,"","",0
Sul,PR,41,411007,41021,21ª RS TELEMACO BORBA,2021-05-07,18,"",1381,23,30,1,"","",0
Sul,PR,41,411007,41021,21ª RS TELEMACO BORBA,2021-05-08,18,"",1402,21,32,2,"","",0
Sul,PR,41,411007,41021,21ª RS TELEMACO BORBA,2021-05-09,19,"",1404,2,32,0,"","",0
Sul,PR,41,411007,41021,21ª RS TELEMACO BORBA,2021-05-10,19,"",1418,14,32,0,"","",0
Sul,PR,41,411007,41021,21ª RS TELEMACO BORBA,2021-05-11,19,"",1420,2,32,0,"","",0
Sul,PR,41,411007,41021,21ª RS TELEMACO BORBA,2021-05-12,19,"",1431,11,34,2,"","",0
Sul,PR,41,411007,41021,21ª RS TELEMACO BORBA,2021-05-13,19,"",1450,19,36,2,"","",0
Sul,PR,41,411007,41021,21ª RS TELEMACO BORBA,2021-05-14,19,"",1463,13,36,0,"","",0
Sul,PR,41,411007,41021,21ª RS TELEMACO BORBA,2021-05-15,19,"",1479,16,38,2,"","",0
Sul,PR,41,411007,41021,21ª RS TELEMACO BORBA,2021-05-16,20,"",1484,5,38,0,"","",0
Sul,PR,41,411007,41021,21ª RS TELEMACO BORBA,2021-05-17,20,"",1485,1,38,0,"","",0
Sul,PR,41,411007,41021,21ª RS TELEMACO BORBA,2021-05-18,20,"",1492,7,38,0,"","",0
Sul,PR,41,411007,41021,21ª RS TELEMACO BORBA,2021-05-19,20,"",1500,8,39,1,"","",0
Sul,PR,41,411007,41021,21ª RS TELEMACO BORBA,2021-05-20,20,"",1511,11,40,1,"","",0
Sul,PR,41,411007,41021,21ª RS TELEMACO BORBA,2021-05-21,20,"",1528,17,40,0,"","",0
Sul,PR,41,411007,41021,21ª RS TELEMACO BORBA,2021-05-22,20,"",1557,29,40,0,"","",0
Sul,PR,41,411007,41021,21ª RS TELEMACO BORBA,2021-05-23,21,"",1559,2,41,1,"","",0
Sul,PR,41,411007,41021,21ª RS TELEMACO BORBA,2021-05-24,21,"",1561,2,42,1,"","",0
Sul,PR,41,411007,41021,21ª RS TELEMACO BORBA,2021-05-25,21,"",1577,16,42,0,"","",0
Sul,PR,41,411007,41021,21ª RS TELEMACO BORBA,2021-05-26,21,"",1585,8,42,0,"","",0
Sul,PR,41,411007,41021,21ª RS TELEMACO BORBA,2021-05-27,21,"",1600,15,42,0,"","",0
Sul,PR,41,411007,41021,21ª RS TELEMACO BORBA,2021-05-28,21,"",1624,24,42,0,"","",0
Sul,PR,41,411007,41021,21ª RS TELEMACO BORBA,2021-05-29,21,"",1630,6,43,1,"","",0
Sul,PR,41,411007,41021,21ª RS TELEMACO BORBA,2021-05-30,22,"",1630,0,43,0,"","",0
Sul,PR,41,411007,41021,21ª RS TELEMACO BORBA,2021-05-31,22,"",1630,0,43,0,"","",0
Sul,PR,41,411007,41021,21ª RS TELEMACO BORBA,2021-06-01,22,"",1650,20,44,1,"","",0
Sul,PR,41,411007,41021,21ª RS TELEMACO BORBA,2021-06-02,22,"",1657,7,44,0,"","",0
Sul,PR,41,411007,41021,21ª RS TELEMACO BORBA,2021-06-03,22,"",1668,11,44,0,"","",0
Sul,PR,41,411007,41021,21ª RS TELEMACO BORBA,2021-06-04,22,"",1668,0,44,0,"","",0
Sul,PR,41,411007,41021,21ª RS TELEMACO BORBA,2021-06-05,22,"",1674,6,44,0,"","",0
Sul,PR,41,411007,41021,21ª RS TELEMACO BORBA,2021-06-06,23,"",1681,7,44,0,"","",0
Sul,PR,41,411007,41021,21ª RS TELEMACO BORBA,2021-06-07,23,"",1686,5,44,0,"","",0
Sul,PR,41,411007,41021,21ª RS TELEMACO BORBA,2021-06-08,23,"",1691,5,44,0,"","",0
Sul,PR,41,411007,41021,21ª RS TELEMACO BORBA,2021-06-09,23,"",1695,4,44,0,"","",0
Sul,PR,41,411007,41021,21ª RS TELEMACO BORBA,2021-06-10,23,"",1698,3,44,0,"","",0
Sul,PR,41,411007,41021,21ª RS TELEMACO BORBA,2021-06-11,23,"",1700,2,44,0,"","",0
Sul,PR,41,411007,41021,21ª RS TELEMACO BORBA,2021-06-12,23,"",1703,3,44,0,"","",0
Sul,PR,41,411007,41021,21ª RS TELEMACO BORBA,2021-06-13,24,"",1704,1,44,0,"","",0
Sul,PR,41,411007,41021,21ª RS TELEMACO BORBA,2021-06-14,24,"",1711,7,44,0,"","",0
Sul,PR,41,411007,41021,21ª RS TELEMACO BORBA,2021-06-15,24,"",1718,7,44,0,"","",0
Sul,PR,41,411007,41021,21ª RS TELEMACO BORBA,2021-06-16,24,"",1723,5,46,2,"","",0
Sul,PR,41,411007,41021,21ª RS TELEMACO BORBA,2021-06-17,24,"",1734,11,47,1,"","",0
Sul,PR,41,411007,41021,21ª RS TELEMACO BORBA,2021-06-18,24,"",1743,9,47,0,"","",0
Sul,PR,41,411007,41021,21ª RS TELEMACO BORBA,2021-06-19,24,"",1750,7,47,0,"","",0
Sul,PR,41,411007,41021,21ª RS TELEMACO BORBA,2021-06-20,25,"",1761,11,47,0,"","",0
Sul,PR,41,411007,41021,21ª RS TELEMACO BORBA,2021-06-21,25,"",1775,14,47,0,"","",0
Sul,PR,41,411007,41021,21ª RS TELEMACO BORBA,2021-06-22,25,"",1791,16,47,0,"","",0
Sul,PR,41,411007,41021,21ª RS TELEMACO BORBA,2021-06-23,25,"",1799,8,47,0,"","",0
Sul,PR,41,411007,41021,21ª RS TELEMACO BORBA,2021-06-24,25,"",1815,16,47,0,"","",0
Sul,PR,41,411007,41021,21ª RS TELEMACO BORBA,2021-06-25,25,"",1819,4,47,0,"","",0
Sul,PR,41,411007,41021,21ª RS TELEMACO BORBA,2021-06-26,25,"",1822,3,47,0,"","",0
Sul,PR,41,411007,41021,21ª RS TELEMACO BORBA,2021-06-27,26,"",1825,3,47,0,"","",0
Sul,PR,41,411007,41021,21ª RS TELEMACO BORBA,2021-06-28,26,"",1829,4,47,0,"","",0
Sul,PR,41,411007,41021,21ª RS TELEMACO BORBA,2021-06-29,26,"",1833,4,47,0,"","",0
Sul,PR,41,411007,41021,21ª RS TELEMACO BORBA,2021-06-30,26,"",1835,2,47,0,"","",0
