Sul,PR,41,412170,41021,21ª RS TELEMACO BORBA,2021-01-01,53,"",410,4,9,0,"","",0
Sul,PR,41,412170,41021,21ª RS TELEMACO BORBA,2021-01-02,53,"",410,0,9,0,"","",0
Sul,PR,41,412170,41021,21ª RS TELEMACO BORBA,2021-01-03,1,"",415,5,9,0,"","",0
Sul,PR,41,412170,41021,21ª RS TELEMACO BORBA,2021-01-04,1,"",415,0,9,0,"","",0
Sul,PR,41,412170,41021,21ª RS TELEMACO BORBA,2021-01-05,1,"",421,6,9,0,"","",0
Sul,PR,41,412170,41021,21ª RS TELEMACO BORBA,2021-01-06,1,"",430,9,9,0,"","",0
Sul,PR,41,412170,41021,21ª RS TELEMACO BORBA,2021-01-07,1,"",444,14,9,0,"","",0
Sul,PR,41,412170,41021,21ª RS TELEMACO BORBA,2021-01-08,1,"",444,0,9,0,"","",0
Sul,PR,41,412170,41021,21ª RS TELEMACO BORBA,2021-01-09,1,"",460,16,9,0,"","",0
Sul,PR,41,412170,41021,21ª RS TELEMACO BORBA,2021-01-10,2,"",460,0,9,0,"","",0
Sul,PR,41,412170,41021,21ª RS TELEMACO BORBA,2021-01-11,2,"",463,3,9,0,"","",0
Sul,PR,41,412170,41021,21ª RS TELEMACO BORBA,2021-01-12,2,"",488,25,9,0,"","",0
Sul,PR,41,412170,41021,21ª RS TELEMACO BORBA,2021-01-13,2,"",498,10,9,0,"","",0
Sul,PR,41,412170,41021,21ª RS TELEMACO BORBA,2021-01-14,2,"",515,17,9,0,"","",0
Sul,PR,41,412170,41021,21ª RS TELEMACO BORBA,2021-01-15,2,"",520,5,9,0,"","",0
Sul,PR,41,412170,41021,21ª RS TELEMACO BORBA,2021-01-16,2,"",522,2,9,0,"","",0
Sul,PR,41,412170,41021,21ª RS TELEMACO BORBA,2021-01-17,3,"",524,2,9,0,"","",0
Sul,PR,41,412170,41021,21ª RS TELEMACO BORBA,2021-01-18,3,"",531,7,9,0,"","",0
Sul,PR,41,412170,41021,21ª RS TELEMACO BORBA,2021-01-19,3,"",533,2,9,0,"","",0
Sul,PR,41,412170,41021,21ª RS TELEMACO BORBA,2021-01-20,3,"",535,2,9,0,"","",0
Sul,PR,41,412170,41021,21ª RS TELEMACO BORBA,2021-01-21,3,"",536,1,9,0,"","",0
Sul,PR,41,412170,41021,21ª RS TELEMACO BORBA,2021-01-22,3,"",539,3,9,0,"","",0
Sul,PR,41,412170,41021,21ª RS TELEMACO BORBA,2021-01-23,3,"",543,4,9,0,"","",0
Sul,PR,41,412170,41021,21ª RS TELEMACO BORBA,2021-01-24,4,"",544,1,11,2,"","",0
Sul,PR,41,412170,41021,21ª RS TELEMACO BORBA,2021-01-25,4,"",545,1,11,0,"","",0
Sul,PR,41,412170,41021,21ª RS TELEMACO BORBA,2021-01-26,4,"",571,26,11,0,"","",0
Sul,PR,41,412170,41021,21ª RS TELEMACO BORBA,2021-01-27,4,"",583,12,11,0,"","",0
Sul,PR,41,412170,41021,21ª RS TELEMACO BORBA,2021-01-28,4,"",587,4,12,1,"","",0
Sul,PR,41,412170,41021,21ª RS TELEMACO BORBA,2021-01-29,4,"",597,10,12,0,"","",0
Sul,PR,41,412170,41021,21ª RS TELEMACO BORBA,2021-01-30,4,"",602,5,13,1,"","",0
Sul,PR,41,412170,41021,21ª RS TELEMACO BORBA,2021-01-31,5,"",604,2,13,0,"","",0
Sul,PR,41,412170,41021,21ª RS TELEMACO BORBA,2021-02-01,5,"",633,29,13,0,"","",0
Sul,PR,41,412170,41021,21ª RS TELEMACO BORBA,2021-02-02,5,"",648,15,13,0,"","",0
Sul,PR,41,412170,41021,21ª RS TELEMACO BORBA,2021-02-03,5,"",656,8,13,0,"","",0
Sul,PR,41,412170,41021,21ª RS TELEMACO BORBA,2021-02-04,5,"",661,5,13,0,"","",0
Sul,PR,41,412170,41021,21ª RS TELEMACO BORBA,2021-02-05,5,"",665,4,13,0,"","",0
Sul,PR,41,412170,41021,21ª RS TELEMACO BORBA,2021-02-06,5,"",666,1,13,0,"","",0
Sul,PR,41,412170,41021,21ª RS TELEMACO BORBA,2021-02-07,6,"",670,4,13,0,"","",0
Sul,PR,41,412170,41021,21ª RS TELEMACO BORBA,2021-02-08,6,"",674,4,13,0,"","",0
Sul,PR,41,412170,41021,21ª RS TELEMACO BORBA,2021-02-09,6,"",691,17,14,1,"","",0
Sul,PR,41,412170,41021,21ª RS TELEMACO BORBA,2021-02-10,6,"",700,9,14,0,"","",0
Sul,PR,41,412170,41021,21ª RS TELEMACO BORBA,2021-02-11,6,"",710,10,14,0,"","",0
Sul,PR,41,412170,41021,21ª RS TELEMACO BORBA,2021-02-12,6,"",711,1,14,0,"","",0
Sul,PR,41,412170,41021,21ª RS TELEMACO BORBA,2021-02-13,6,"",725,14,14,0,"","",0
Sul,PR,41,412170,41021,21ª RS TELEMACO BORBA,2021-02-14,7,"",727,2,14,0,"","",0
Sul,PR,41,412170,41021,21ª RS TELEMACO BORBA,2021-02-15,7,"",744,17,14,0,"","",0
Sul,PR,41,412170,41021,21ª RS TELEMACO BORBA,2021-02-16,7,"",783,39,14,0,"","",0
Sul,PR,41,412170,41021,21ª RS TELEMACO BORBA,2021-02-17,7,"",785,2,14,0,"","",0
Sul,PR,41,412170,41021,21ª RS TELEMACO BORBA,2021-02-18,7,"",805,20,15,1,"","",0
Sul,PR,41,412170,41021,21ª RS TELEMACO BORBA,2021-02-19,7,"",808,3,15,0,"","",0
Sul,PR,41,412170,41021,21ª RS TELEMACO BORBA,2021-02-20,7,"",815,7,15,0,"","",0
Sul,PR,41,412170,41021,21ª RS TELEMACO BORBA,2021-02-21,8,"",823,8,15,0,"","",0
Sul,PR,41,412170,41021,21ª RS TELEMACO BORBA,2021-02-22,8,"",835,12,17,2,"","",0
Sul,PR,41,412170,41021,21ª RS TELEMACO BORBA,2021-02-23,8,"",849,14,17,0,"","",0
Sul,PR,41,412170,41021,21ª RS TELEMACO BORBA,2021-02-24,8,"",858,9,17,0,"","",0
Sul,PR,41,412170,41021,21ª RS TELEMACO BORBA,2021-02-25,8,"",862,4,17,0,"","",0
Sul,PR,41,412170,41021,21ª RS TELEMACO BORBA,2021-02-26,8,"",879,17,17,0,"","",0
Sul,PR,41,412170,41021,21ª RS TELEMACO BORBA,2021-02-27,8,"",900,21,17,0,"","",0
Sul,PR,41,412170,41021,21ª RS TELEMACO BORBA,2021-02-28,9,"",914,14,17,0,"","",0
Sul,PR,41,412170,41021,21ª RS TELEMACO BORBA,2021-03-01,9,"",942,28,17,0,"","",0
Sul,PR,41,412170,41021,21ª RS TELEMACO BORBA,2021-03-02,9,"",955,13,17,0,"","",0
Sul,PR,41,412170,41021,21ª RS TELEMACO BORBA,2021-03-03,9,"",957,2,17,0,"","",0
Sul,PR,41,412170,41021,21ª RS TELEMACO BORBA,2021-03-04,9,"",960,3,19,2,"","",0
Sul,PR,41,412170,41021,21ª RS TELEMACO BORBA,2021-03-05,9,"",967,7,19,0,"","",0
Sul,PR,41,412170,41021,21ª RS TELEMACO BORBA,2021-03-06,9,"",984,17,20,1,"","",0
Sul,PR,41,412170,41021,21ª RS TELEMACO BORBA,2021-03-07,10,"",995,11,20,0,"","",0
Sul,PR,41,412170,41021,21ª RS TELEMACO BORBA,2021-03-08,10,"",1003,8,20,0,"","",0
Sul,PR,41,412170,41021,21ª RS TELEMACO BORBA,2021-03-09,10,"",1013,10,20,0,"","",0
Sul,PR,41,412170,41021,21ª RS TELEMACO BORBA,2021-03-10,10,"",1021,8,20,0,"","",0
Sul,PR,41,412170,41021,21ª RS TELEMACO BORBA,2021-03-11,10,"",1024,3,20,0,"","",0
Sul,PR,41,412170,41021,21ª RS TELEMACO BORBA,2021-03-12,10,"",1042,18,20,0,"","",0
Sul,PR,41,412170,41021,21ª RS TELEMACO BORBA,2021-03-13,10,"",1057,15,20,0,"","",0
Sul,PR,41,412170,41021,21ª RS TELEMACO BORBA,2021-03-14,11,"",1068,11,20,0,"","",0
Sul,PR,41,412170,41021,21ª RS TELEMACO BORBA,2021-03-15,11,"",1075,7,20,0,"","",0
Sul,PR,41,412170,41021,21ª RS TELEMACO BORBA,2021-03-16,11,"",1085,10,23,3,"","",0
Sul,PR,41,412170,41021,21ª RS TELEMACO BORBA,2021-03-17,11,"",1095,10,23,0,"","",0
Sul,PR,41,412170,41021,21ª RS TELEMACO BORBA,2021-03-18,11,"",1101,6,23,0,"","",0
Sul,PR,41,412170,41021,21ª RS TELEMACO BORBA,2021-03-19,11,"",1113,12,23,0,"","",0
Sul,PR,41,412170,41021,21ª RS TELEMACO BORBA,2021-03-20,11,"",1131,18,23,0,"","",0
Sul,PR,41,412170,41021,21ª RS TELEMACO BORBA,2021-03-21,12,"",1139,8,23,0,"","",0
Sul,PR,41,412170,41021,21ª RS TELEMACO BORBA,2021-03-22,12,"",1148,9,23,0,"","",0
Sul,PR,41,412170,41021,21ª RS TELEMACO BORBA,2021-03-23,12,"",1160,12,23,0,"","",0
Sul,PR,41,412170,41021,21ª RS TELEMACO BORBA,2021-03-24,12,"",1172,12,23,0,"","",0
Sul,PR,41,412170,41021,21ª RS TELEMACO BORBA,2021-03-25,12,"",1205,33,23,0,"","",0
Sul,PR,41,412170,41021,21ª RS TELEMACO BORBA,2021-03-26,12,"",1214,9,23,0,"","",0
Sul,PR,41,412170,41021,21ª RS TELEMACO BORBA,2021-03-27,12,"",1219,5,23,0,"","",0
Sul,PR,41,412170,41021,21ª RS TELEMACO BORBA,2021-03-28,13,"",1222,3,23,0,"","",0
Sul,PR,41,412170,41021,21ª RS TELEMACO BORBA,2021-03-29,13,"",1241,19,24,1,"","",0
Sul,PR,41,412170,41021,21ª RS TELEMACO BORBA,2021-03-30,13,"",1251,10,24,0,"","",0
Sul,PR,41,412170,41021,21ª RS TELEMACO BORBA,2021-03-31,13,"",1255,4,24,0,"","",0
Sul,PR,41,412170,41021,21ª RS TELEMACO BORBA,2021-04-01,13,"",1259,4,24,0,"","",0
Sul,PR,41,412170,41021,21ª RS TELEMACO BORBA,2021-04-02,13,"",1267,8,24,0,"","",0
Sul,PR,41,412170,41021,21ª RS TELEMACO BORBA,2021-04-03,13,"",1282,15,24,0,"","",0
Sul,PR,41,412170,41021,21ª RS TELEMACO BORBA,2021-04-04,14,"",1283,1,24,0,"","",0
Sul,PR,41,412170,41021,21ª RS TELEMACO BORBA,2021-04-05,14,"",1289,6,24,0,"","",0
Sul,PR,41,412170,41021,21ª RS TELEMACO BORBA,2021-04-06,14,"",1298,9,24,0,"","",0
Sul,PR,41,412170,41021,21ª RS TELEMACO BORBA,2021-04-07,14,"",1310,12,24,0,"","",0
Sul,PR,41,412170,41021,21ª RS TELEMACO BORBA,2021-04-08,14,"",1321,11,25,1,"","",0
Sul,PR,41,412170,41021,21ª RS TELEMACO BORBA,2021-04-09,14,"",1344,23,25,0,"","",0
Sul,PR,41,412170,41021,21ª RS TELEMACO BORBA,2021-04-10,14,"",1353,9,25,0,"","",0
Sul,PR,41,412170,41021,21ª RS TELEMACO BORBA,2021-04-11,15,"",1376,23,25,0,"","",0
Sul,PR,41,412170,41021,21ª RS TELEMACO BORBA,2021-04-12,15,"",1378,2,25,0,"","",0
Sul,PR,41,412170,41021,21ª RS TELEMACO BORBA,2021-04-13,15,"",1409,31,26,1,"","",0
Sul,PR,41,412170,41021,21ª RS TELEMACO BORBA,2021-04-14,15,"",1415,6,26,0,"","",0
Sul,PR,41,412170,41021,21ª RS TELEMACO BORBA,2021-04-15,15,"",1434,19,26,0,"","",0
Sul,PR,41,412170,41021,21ª RS TELEMACO BORBA,2021-04-16,15,"",1450,16,26,0,"","",0
Sul,PR,41,412170,41021,21ª RS TELEMACO BORBA,2021-04-17,15,"",1468,18,26,0,"","",0
Sul,PR,41,412170,41021,21ª RS TELEMACO BORBA,2021-04-18,16,"",1503,35,28,2,"","",0
Sul,PR,41,412170,41021,21ª RS TELEMACO BORBA,2021-04-19,16,"",1516,13,28,0,"","",0
Sul,PR,41,412170,41021,21ª RS TELEMACO BORBA,2021-04-20,16,"",1559,43,28,0,"","",0
Sul,PR,41,412170,41021,21ª RS TELEMACO BORBA,2021-04-21,16,"",1577,18,28,0,"","",0
Sul,PR,41,412170,41021,21ª RS TELEMACO BORBA,2021-04-22,16,"",1593,16,28,0,"","",0
Sul,PR,41,412170,41021,21ª RS TELEMACO BORBA,2021-04-23,16,"",1613,20,28,0,"","",0
Sul,PR,41,412170,41021,21ª RS TELEMACO BORBA,2021-04-24,16,"",1628,15,29,1,"","",0
Sul,PR,41,412170,41021,21ª RS TELEMACO BORBA,2021-04-25,17,"",1642,14,29,0,"","",0
Sul,PR,41,412170,41021,21ª RS TELEMACO BORBA,2021-04-26,17,"",1664,22,30,1,"","",0
Sul,PR,41,412170,41021,21ª RS TELEMACO BORBA,2021-04-27,17,"",1679,15,30,0,"","",0
Sul,PR,41,412170,41021,21ª RS TELEMACO BORBA,2021-04-28,17,"",1698,19,30,0,"","",0
Sul,PR,41,412170,41021,21ª RS TELEMACO BORBA,2021-04-29,17,"",1717,19,30,0,"","",0
Sul,PR,41,412170,41021,21ª RS TELEMACO BORBA,2021-04-30,17,"",1743,26,31,1,"","",0
Sul,PR,41,412170,41021,21ª RS TELEMACO BORBA,2021-05-01,17,"",1755,12,31,0,"","",0
Sul,PR,41,412170,41021,21ª RS TELEMACO BORBA,2021-05-02,18,"",1771,16,31,0,"","",0
Sul,PR,41,412170,41021,21ª RS TELEMACO BORBA,2021-05-03,18,"",1793,22,31,0,"","",0
Sul,PR,41,412170,41021,21ª RS TELEMACO BORBA,2021-05-04,18,"",1830,37,32,1,"","",0
Sul,PR,41,412170,41021,21ª RS TELEMACO BORBA,2021-05-05,18,"",1851,21,32,0,"","",0
Sul,PR,41,412170,41021,21ª RS TELEMACO BORBA,2021-05-06,18,"",1876,25,32,0,"","",0
Sul,PR,41,412170,41021,21ª RS TELEMACO BORBA,2021-05-07,18,"",1897,21,35,3,"","",0
Sul,PR,41,412170,41021,21ª RS TELEMACO BORBA,2021-05-08,18,"",1911,14,35,0,"","",0
Sul,PR,41,412170,41021,21ª RS TELEMACO BORBA,2021-05-09,19,"",1917,6,35,0,"","",0
Sul,PR,41,412170,41021,21ª RS TELEMACO BORBA,2021-05-10,19,"",1946,29,35,0,"","",0
Sul,PR,41,412170,41021,21ª RS TELEMACO BORBA,2021-05-11,19,"",1980,34,35,0,"","",0
Sul,PR,41,412170,41021,21ª RS TELEMACO BORBA,2021-05-12,19,"",1999,19,36,1,"","",0
Sul,PR,41,412170,41021,21ª RS TELEMACO BORBA,2021-05-13,19,"",2012,13,36,0,"","",0
Sul,PR,41,412170,41021,21ª RS TELEMACO BORBA,2021-05-14,19,"",2024,12,38,2,"","",0
Sul,PR,41,412170,41021,21ª RS TELEMACO BORBA,2021-05-15,19,"",2046,22,40,2,"","",0
Sul,PR,41,412170,41021,21ª RS TELEMACO BORBA,2021-05-16,20,"",2061,15,40,0,"","",0
Sul,PR,41,412170,41021,21ª RS TELEMACO BORBA,2021-05-17,20,"",2070,9,40,0,"","",0
Sul,PR,41,412170,41021,21ª RS TELEMACO BORBA,2021-05-18,20,"",2088,18,40,0,"","",0
Sul,PR,41,412170,41021,21ª RS TELEMACO BORBA,2021-05-19,20,"",2123,35,41,1,"","",0
Sul,PR,41,412170,41021,21ª RS TELEMACO BORBA,2021-05-20,20,"",2139,16,42,1,"","",0
Sul,PR,41,412170,41021,21ª RS TELEMACO BORBA,2021-05-21,20,"",2155,16,43,1,"","",0
Sul,PR,41,412170,41021,21ª RS TELEMACO BORBA,2021-05-22,20,"",2182,27,44,1,"","",0
Sul,PR,41,412170,41021,21ª RS TELEMACO BORBA,2021-05-23,21,"",2199,17,44,0,"","",0
Sul,PR,41,412170,41021,21ª RS TELEMACO BORBA,2021-05-24,21,"",2249,50,44,0,"","",0
Sul,PR,41,412170,41021,21ª RS TELEMACO BORBA,2021-05-25,21,"",2260,11,44,0,"","",0
Sul,PR,41,412170,41021,21ª RS TELEMACO BORBA,2021-05-26,21,"",2269,9,45,1,"","",0
Sul,PR,41,412170,41021,21ª RS TELEMACO BORBA,2021-05-27,21,"",2293,24,45,0,"","",0
Sul,PR,41,412170,41021,21ª RS TELEMACO BORBA,2021-05-28,21,"",2323,30,46,1,"","",0
Sul,PR,41,412170,41021,21ª RS TELEMACO BORBA,2021-05-29,21,"",2360,37,47,1,"","",0
Sul,PR,41,412170,41021,21ª RS TELEMACO BORBA,2021-05-30,22,"",2373,13,47,0,"","",0
Sul,PR,41,412170,41021,21ª RS TELEMACO BORBA,2021-05-31,22,"",2388,15,47,0,"","",0
Sul,PR,41,412170,41021,21ª RS TELEMACO BORBA,2021-06-01,22,"",2412,24,47,0,"","",0
Sul,PR,41,412170,41021,21ª RS TELEMACO BORBA,2021-06-02,22,"",2435,23,47,0,"","",0
Sul,PR,41,412170,41021,21ª RS TELEMACO BORBA,2021-06-03,22,"",2465,30,48,1,"","",0
Sul,PR,41,412170,41021,21ª RS TELEMACO BORBA,2021-06-04,22,"",2489,24,50,2,"","",0
Sul,PR,41,412170,41021,21ª RS TELEMACO BORBA,2021-06-05,22,"",2501,12,50,0,"","",0
Sul,PR,41,412170,41021,21ª RS TELEMACO BORBA,2021-06-06,23,"",2510,9,50,0,"","",0
Sul,PR,41,412170,41021,21ª RS TELEMACO BORBA,2021-06-07,23,"",2556,46,51,1,"","",0
Sul,PR,41,412170,41021,21ª RS TELEMACO BORBA,2021-06-08,23,"",2560,4,51,0,"","",0
Sul,PR,41,412170,41021,21ª RS TELEMACO BORBA,2021-06-09,23,"",2576,16,51,0,"","",0
Sul,PR,41,412170,41021,21ª RS TELEMACO BORBA,2021-06-10,23,"",2588,12,51,0,"","",0
Sul,PR,41,412170,41021,21ª RS TELEMACO BORBA,2021-06-11,23,"",2610,22,53,2,"","",0
Sul,PR,41,412170,41021,21ª RS TELEMACO BORBA,2021-06-12,23,"",2627,17,53,0,"","",0
Sul,PR,41,412170,41021,21ª RS TELEMACO BORBA,2021-06-13,24,"",2628,1,53,0,"","",0
Sul,PR,41,412170,41021,21ª RS TELEMACO BORBA,2021-06-14,24,"",2646,18,53,0,"","",0
Sul,PR,41,412170,41021,21ª RS TELEMACO BORBA,2021-06-15,24,"",2661,15,53,0,"","",0
Sul,PR,41,412170,41021,21ª RS TELEMACO BORBA,2021-06-16,24,"",2676,15,54,1,"","",0
Sul,PR,41,412170,41021,21ª RS TELEMACO BORBA,2021-06-17,24,"",2686,10,54,0,"","",0
Sul,PR,41,412170,41021,21ª RS TELEMACO BORBA,2021-06-18,24,"",2724,38,57,3,"","",0
Sul,PR,41,412170,41021,21ª RS TELEMACO BORBA,2021-06-19,24,"",2742,18,58,1,"","",0
Sul,PR,41,412170,41021,21ª RS TELEMACO BORBA,2021-06-20,25,"",2768,26,58,0,"","",0
Sul,PR,41,412170,41021,21ª RS TELEMACO BORBA,2021-06-21,25,"",2835,67,58,0,"","",0
Sul,PR,41,412170,41021,21ª RS TELEMACO BORBA,2021-06-22,25,"",2858,23,58,0,"","",0
Sul,PR,41,412170,41021,21ª RS TELEMACO BORBA,2021-06-23,25,"",2874,16,58,0,"","",0
Sul,PR,41,412170,41021,21ª RS TELEMACO BORBA,2021-06-24,25,"",2888,14,58,0,"","",0
Sul,PR,41,412170,41021,21ª RS TELEMACO BORBA,2021-06-25,25,"",2926,38,58,0,"","",0
Sul,PR,41,412170,41021,21ª RS TELEMACO BORBA,2021-06-26,25,"",2955,29,58,0,"","",0
Sul,PR,41,412170,41021,21ª RS TELEMACO BORBA,2021-06-27,26,"",2973,18,58,0,"","",0
Sul,PR,41,412170,41021,21ª RS TELEMACO BORBA,2021-06-28,26,"",2981,8,58,0,"","",0
Sul,PR,41,412170,41021,21ª RS TELEMACO BORBA,2021-06-29,26,"",2988,7,58,0,"","",0
Sul,PR,41,412170,41021,21ª RS TELEMACO BORBA,2021-06-30,26,"",3008,20,58,0,"","",0
