Sul,PR,41,412853,41021,21ª RS TELEMACO BORBA,2020-08-01,31,"",31,5,1,0,"","",0
Sul,PR,41,412853,41021,21ª RS TELEMACO BORBA,2020-08-02,32,"",31,0,1,0,"","",0
Sul,PR,41,412853,41021,21ª RS TELEMACO BORBA,2020-08-03,32,"",31,0,1,0,"","",0
Sul,PR,41,412853,41021,21ª RS TELEMACO BORBA,2020-08-04,32,"",33,2,1,0,"","",0
Sul,PR,41,412853,41021,21ª RS TELEMACO BORBA,2020-08-05,32,"",33,0,1,0,"","",0
Sul,PR,41,412853,41021,21ª RS TELEMACO BORBA,2020-08-06,32,"",33,0,1,0,"","",0
Sul,PR,41,412853,41021,21ª RS TELEMACO BORBA,2020-08-07,32,"",34,1,1,0,"","",0
Sul,PR,41,412853,41021,21ª RS TELEMACO BORBA,2020-08-08,32,"",34,0,1,0,"","",0
Sul,PR,41,412853,41021,21ª RS TELEMACO BORBA,2020-08-09,33,"",34,0,1,0,"","",0
Sul,PR,41,412853,41021,21ª RS TELEMACO BORBA,2020-08-10,33,"",38,4,1,0,"","",0
Sul,PR,41,412853,41021,21ª RS TELEMACO BORBA,2020-08-11,33,"",38,0,1,0,"","",0
Sul,PR,41,412853,41021,21ª RS TELEMACO BORBA,2020-08-12,33,"",38,0,1,0,"","",0
Sul,PR,41,412853,41021,21ª RS TELEMACO BORBA,2020-08-13,33,"",38,0,1,0,"","",0
Sul,PR,41,412853,41021,21ª RS TELEMACO BORBA,2020-08-14,33,"",38,0,1,0,"","",0
Sul,PR,41,412853,41021,21ª RS TELEMACO BORBA,2020-08-15,33,"",38,0,1,0,"","",0
Sul,PR,41,412853,41021,21ª RS TELEMACO BORBA,2020-08-16,34,"",38,0,1,0,"","",0
Sul,PR,41,412853,41021,21ª RS TELEMACO BORBA,2020-08-17,34,"",38,0,1,0,"","",0
Sul,PR,41,412853,41021,21ª RS TELEMACO BORBA,2020-08-18,34,"",38,0,1,0,"","",0
Sul,PR,41,412853,41021,21ª RS TELEMACO BORBA,2020-08-19,34,"",38,0,1,0,"","",0
Sul,PR,41,412853,41021,21ª RS TELEMACO BORBA,2020-08-20,34,"",39,1,1,0,"","",0
Sul,PR,41,412853,41021,21ª RS TELEMACO BORBA,2020-08-21,34,"",39,0,1,0,"","",0
Sul,PR,41,412853,41021,21ª RS TELEMACO BORBA,2020-08-22,34,"",39,0,1,0,"","",0
Sul,PR,41,412853,41021,21ª RS TELEMACO BORBA,2020-08-23,35,"",39,0,1,0,"","",0
Sul,PR,41,412853,41021,21ª RS TELEMACO BORBA,2020-08-24,35,"",40,1,1,0,"","",0
Sul,PR,41,412853,41021,21ª RS TELEMACO BORBA,2020-08-25,35,"",40,0,2,1,"","",0
Sul,PR,41,412853,41021,21ª RS TELEMACO BORBA,2020-08-26,35,"",40,0,2,0,"","",0
Sul,PR,41,412853,41021,21ª RS TELEMACO BORBA,2020-08-27,35,"",42,2,2,0,"","",0
Sul,PR,41,412853,41021,21ª RS TELEMACO BORBA,2020-08-28,35,"",42,0,2,0,"","",0
Sul,PR,41,412853,41021,21ª RS TELEMACO BORBA,2020-08-29,35,"",42,0,2,0,"","",0
Sul,PR,41,412853,41021,21ª RS TELEMACO BORBA,2020-08-30,36,"",45,3,2,0,"","",0
Sul,PR,41,412853,41021,21ª RS TELEMACO BORBA,2020-08-31,36,"",45,0,2,0,"","",0
Sul,PR,41,412853,41021,21ª RS TELEMACO BORBA,2020-09-01,36,"",45,0,2,0,"","",0
Sul,PR,41,412853,41021,21ª RS TELEMACO BORBA,2020-09-02,36,"",45,0,2,0,"","",0
Sul,PR,41,412853,41021,21ª RS TELEMACO BORBA,2020-09-03,36,"",45,0,2,0,"","",0
Sul,PR,41,412853,41021,21ª RS TELEMACO BORBA,2020-09-04,36,"",45,0,2,0,"","",0
Sul,PR,41,412853,41021,21ª RS TELEMACO BORBA,2020-09-05,36,"",46,1,2,0,"","",0
Sul,PR,41,412853,41021,21ª RS TELEMACO BORBA,2020-09-06,37,"",47,1,2,0,"","",0
Sul,PR,41,412853,41021,21ª RS TELEMACO BORBA,2020-09-07,37,"",47,0,2,0,"","",0
Sul,PR,41,412853,41021,21ª RS TELEMACO BORBA,2020-09-08,37,"",47,0,2,0,"","",0
Sul,PR,41,412853,41021,21ª RS TELEMACO BORBA,2020-09-09,37,"",47,0,2,0,"","",0
Sul,PR,41,412853,41021,21ª RS TELEMACO BORBA,2020-09-10,37,"",47,0,2,0,"","",0
Sul,PR,41,412853,41021,21ª RS TELEMACO BORBA,2020-09-11,37,"",48,1,2,0,"","",0
Sul,PR,41,412853,41021,21ª RS TELEMACO BORBA,2020-09-12,37,"",48,0,2,0,"","",0
Sul,PR,41,412853,41021,21ª RS TELEMACO BORBA,2020-09-13,38,"",48,0,2,0,"","",0
Sul,PR,41,412853,41021,21ª RS TELEMACO BORBA,2020-09-14,38,"",49,1,2,0,"","",0
Sul,PR,41,412853,41021,21ª RS TELEMACO BORBA,2020-09-15,38,"",50,1,2,0,"","",0
Sul,PR,41,412853,41021,21ª RS TELEMACO BORBA,2020-09-16,38,"",50,0,2,0,"","",0
Sul,PR,41,412853,41021,21ª RS TELEMACO BORBA,2020-09-17,38,"",50,0,2,0,"","",0
Sul,PR,41,412853,41021,21ª RS TELEMACO BORBA,2020-09-18,38,"",51,1,2,0,"","",0
Sul,PR,41,412853,41021,21ª RS TELEMACO BORBA,2020-09-19,38,"",51,0,2,0,"","",0
Sul,PR,41,412853,41021,21ª RS TELEMACO BORBA,2020-09-20,39,"",53,2,2,0,"","",0
Sul,PR,41,412853,41021,21ª RS TELEMACO BORBA,2020-09-21,39,"",53,0,2,0,"","",0
Sul,PR,41,412853,41021,21ª RS TELEMACO BORBA,2020-09-22,39,"",53,0,2,0,"","",0
Sul,PR,41,412853,41021,21ª RS TELEMACO BORBA,2020-09-23,39,"",53,0,2,0,"","",0
Sul,PR,41,412853,41021,21ª RS TELEMACO BORBA,2020-09-24,39,"",53,0,2,0,"","",0
Sul,PR,41,412853,41021,21ª RS TELEMACO BORBA,2020-09-25,39,"",54,1,2,0,"","",0
Sul,PR,41,412853,41021,21ª RS TELEMACO BORBA,2020-09-26,39,"",54,0,2,0,"","",0
Sul,PR,41,412853,41021,21ª RS TELEMACO BORBA,2020-09-27,40,"",56,2,2,0,"","",0
Sul,PR,41,412853,41021,21ª RS TELEMACO BORBA,2020-09-28,40,"",57,1,2,0,"","",0
Sul,PR,41,412853,41021,21ª RS TELEMACO BORBA,2020-09-29,40,"",57,0,2,0,"","",0
Sul,PR,41,412853,41021,21ª RS TELEMACO BORBA,2020-09-30,40,"",57,0,2,0,"","",0
Sul,PR,41,412853,41021,21ª RS TELEMACO BORBA,2020-10-01,40,"",59,2,2,0,"","",0
Sul,PR,41,412853,41021,21ª RS TELEMACO BORBA,2020-10-02,40,"",59,0,2,0,"","",0
Sul,PR,41,412853,41021,21ª RS TELEMACO BORBA,2020-10-03,40,"",59,0,2,0,"","",0
Sul,PR,41,412853,41021,21ª RS TELEMACO BORBA,2020-10-04,41,"",59,0,2,0,"","",0
Sul,PR,41,412853,41021,21ª RS TELEMACO BORBA,2020-10-05,41,"",59,0,2,0,"","",0
Sul,PR,41,412853,41021,21ª RS TELEMACO BORBA,2020-10-06,41,"",59,0,2,0,"","",0
Sul,PR,41,412853,41021,21ª RS TELEMACO BORBA,2020-10-07,41,"",59,0,2,0,"","",0
Sul,PR,41,412853,41021,21ª RS TELEMACO BORBA,2020-10-08,41,"",59,0,2,0,"","",0
Sul,PR,41,412853,41021,21ª RS TELEMACO BORBA,2020-10-09,41,"",61,2,2,0,"","",0
Sul,PR,41,412853,41021,21ª RS TELEMACO BORBA,2020-10-10,41,"",61,0,2,0,"","",0
Sul,PR,41,412853,41021,21ª RS TELEMACO BORBA,2020-10-11,42,"",61,0,2,0,"","",0
Sul,PR,41,412853,41021,21ª RS TELEMACO BORBA,2020-10-12,42,"",61,0,2,0,"","",0
Sul,PR,41,412853,41021,21ª RS TELEMACO BORBA,2020-10-13,42,"",61,0,2,0,"","",0
Sul,PR,41,412853,41021,21ª RS TELEMACO BORBA,2020-10-14,42,"",61,0,2,0,"","",0
Sul,PR,41,412853,41021,21ª RS TELEMACO BORBA,2020-10-15,42,"",61,0,2,0,"","",0
Sul,PR,41,412853,41021,21ª RS TELEMACO BORBA,2020-10-16,42,"",61,0,2,0,"","",0
Sul,PR,41,412853,41021,21ª RS TELEMACO BORBA,2020-10-17,42,"",61,0,2,0,"","",0
Sul,PR,41,412853,41021,21ª RS TELEMACO BORBA,2020-10-18,43,"",61,0,2,0,"","",0
Sul,PR,41,412853,41021,21ª RS TELEMACO BORBA,2020-10-19,43,"",61,0,2,0,"","",0
Sul,PR,41,412853,41021,21ª RS TELEMACO BORBA,2020-10-20,43,"",63,2,2,0,"","",0
Sul,PR,41,412853,41021,21ª RS TELEMACO BORBA,2020-10-21,43,"",63,0,2,0,"","",0
Sul,PR,41,412853,41021,21ª RS TELEMACO BORBA,2020-10-22,43,"",63,0,2,0,"","",0
Sul,PR,41,412853,41021,21ª RS TELEMACO BORBA,2020-10-23,43,"",63,0,2,0,"","",0
Sul,PR,41,412853,41021,21ª RS TELEMACO BORBA,2020-10-24,43,"",63,0,2,0,"","",0
Sul,PR,41,412853,41021,21ª RS TELEMACO BORBA,2020-10-25,44,"",63,0,2,0,"","",0
Sul,PR,41,412853,41021,21ª RS TELEMACO BORBA,2020-10-26,44,"",63,0,2,0,"","",0
Sul,PR,41,412853,41021,21ª RS TELEMACO BORBA,2020-10-27,44,"",65,2,2,0,"","",0
Sul,PR,41,412853,41021,21ª RS TELEMACO BORBA,2020-10-28,44,"",65,0,2,0,"","",0
Sul,PR,41,412853,41021,21ª RS TELEMACO BORBA,2020-10-29,44,"",65,0,2,0,"","",0
Sul,PR,41,412853,41021,21ª RS TELEMACO BORBA,2020-10-30,44,"",67,2,2,0,"","",0
Sul,PR,41,412853,41021,21ª RS TELEMACO BORBA,2020-10-31,44,"",67,0,2,0,"","",0
Sul,PR,41,412853,41021,21ª RS TELEMACO BORBA,2020-11-01,45,"",68,1,2,0,"","",0
Sul,PR,41,412853,41021,21ª RS TELEMACO BORBA,2020-11-02,45,"",72,4,2,0,"","",0
Sul,PR,41,412853,41021,21ª RS TELEMACO BORBA,2020-11-03,45,"",72,0,2,0,"","",0
Sul,PR,41,412853,41021,21ª RS TELEMACO BORBA,2020-11-04,45,"",72,0,2,0,"","",0
Sul,PR,41,412853,41021,21ª RS TELEMACO BORBA,2020-11-05,45,"",72,0,2,0,"","",0
Sul,PR,41,412853,41021,21ª RS TELEMACO BORBA,2020-11-06,45,"",72,0,2,0,"","",0
Sul,PR,41,412853,41021,21ª RS TELEMACO BORBA,2020-11-07,45,"",72,0,2,0,"","",0
Sul,PR,41,412853,41021,21ª RS TELEMACO BORBA,2020-11-08,46,"",73,1,2,0,"","",0
Sul,PR,41,412853,41021,21ª RS TELEMACO BORBA,2020-11-09,46,"",73,0,2,0,"","",0
Sul,PR,41,412853,41021,21ª RS TELEMACO BORBA,2020-11-10,46,"",73,0,2,0,"","",0
Sul,PR,41,412853,41021,21ª RS TELEMACO BORBA,2020-11-11,46,"",81,8,2,0,"","",0
Sul,PR,41,412853,41021,21ª RS TELEMACO BORBA,2020-11-12,46,"",81,0,2,0,"","",0
Sul,PR,41,412853,41021,21ª RS TELEMACO BORBA,2020-11-13,46,"",81,0,2,0,"","",0
Sul,PR,41,412853,41021,21ª RS TELEMACO BORBA,2020-11-14,46,"",86,5,2,0,"","",0
Sul,PR,41,412853,41021,21ª RS TELEMACO BORBA,2020-11-15,47,"",86,0,2,0,"","",0
Sul,PR,41,412853,41021,21ª RS TELEMACO BORBA,2020-11-16,47,"",86,0,2,0,"","",0
Sul,PR,41,412853,41021,21ª RS TELEMACO BORBA,2020-11-17,47,"",86,0,2,0,"","",0
Sul,PR,41,412853,41021,21ª RS TELEMACO BORBA,2020-11-18,47,"",98,12,2,0,"","",0
Sul,PR,41,412853,41021,21ª RS TELEMACO BORBA,2020-11-19,47,"",102,4,2,0,"","",0
Sul,PR,41,412853,41021,21ª RS TELEMACO BORBA,2020-11-20,47,"",102,0,2,0,"","",0
Sul,PR,41,412853,41021,21ª RS TELEMACO BORBA,2020-11-21,47,"",102,0,2,0,"","",0
Sul,PR,41,412853,41021,21ª RS TELEMACO BORBA,2020-11-22,48,"",125,23,2,0,"","",0
Sul,PR,41,412853,41021,21ª RS TELEMACO BORBA,2020-11-23,48,"",126,1,2,0,"","",0
Sul,PR,41,412853,41021,21ª RS TELEMACO BORBA,2020-11-24,48,"",128,2,2,0,"","",0
Sul,PR,41,412853,41021,21ª RS TELEMACO BORBA,2020-11-25,48,"",131,3,2,0,"","",0
Sul,PR,41,412853,41021,21ª RS TELEMACO BORBA,2020-11-26,48,"",146,15,3,1,"","",0
Sul,PR,41,412853,41021,21ª RS TELEMACO BORBA,2020-11-27,48,"",146,0,3,0,"","",0
Sul,PR,41,412853,41021,21ª RS TELEMACO BORBA,2020-11-28,48,"",146,0,3,0,"","",0
Sul,PR,41,412853,41021,21ª RS TELEMACO BORBA,2020-11-29,49,"",159,13,3,0,"","",0
Sul,PR,41,412853,41021,21ª RS TELEMACO BORBA,2020-11-30,49,"",169,10,3,0,"","",0
Sul,PR,41,412853,41021,21ª RS TELEMACO BORBA,2020-12-01,49,"",169,0,3,0,"","",0
Sul,PR,41,412853,41021,21ª RS TELEMACO BORBA,2020-12-02,49,"",169,0,3,0,"","",0
Sul,PR,41,412853,41021,21ª RS TELEMACO BORBA,2020-12-03,49,"",182,13,3,0,"","",0
Sul,PR,41,412853,41021,21ª RS TELEMACO BORBA,2020-12-04,49,"",183,1,3,0,"","",0
Sul,PR,41,412853,41021,21ª RS TELEMACO BORBA,2020-12-05,49,"",193,10,3,0,"","",0
Sul,PR,41,412853,41021,21ª RS TELEMACO BORBA,2020-12-06,50,"",205,12,3,0,"","",0
Sul,PR,41,412853,41021,21ª RS TELEMACO BORBA,2020-12-07,50,"",213,8,3,0,"","",0
Sul,PR,41,412853,41021,21ª RS TELEMACO BORBA,2020-12-08,50,"",213,0,3,0,"","",0
Sul,PR,41,412853,41021,21ª RS TELEMACO BORBA,2020-12-09,50,"",217,4,3,0,"","",0
Sul,PR,41,412853,41021,21ª RS TELEMACO BORBA,2020-12-10,50,"",217,0,3,0,"","",0
Sul,PR,41,412853,41021,21ª RS TELEMACO BORBA,2020-12-11,50,"",221,4,3,0,"","",0
Sul,PR,41,412853,41021,21ª RS TELEMACO BORBA,2020-12-12,50,"",222,1,3,0,"","",0
Sul,PR,41,412853,41021,21ª RS TELEMACO BORBA,2020-12-13,51,"",241,19,3,0,"","",0
Sul,PR,41,412853,41021,21ª RS TELEMACO BORBA,2020-12-14,51,"",242,1,3,0,"","",0
Sul,PR,41,412853,41021,21ª RS TELEMACO BORBA,2020-12-15,51,"",246,4,3,0,"","",0
Sul,PR,41,412853,41021,21ª RS TELEMACO BORBA,2020-12-16,51,"",251,5,3,0,"","",0
Sul,PR,41,412853,41021,21ª RS TELEMACO BORBA,2020-12-17,51,"",254,3,4,1,"","",0
Sul,PR,41,412853,41021,21ª RS TELEMACO BORBA,2020-12-18,51,"",254,0,4,0,"","",0
Sul,PR,41,412853,41021,21ª RS TELEMACO BORBA,2020-12-19,51,"",255,1,4,0,"","",0
Sul,PR,41,412853,41021,21ª RS TELEMACO BORBA,2020-12-20,52,"",255,0,4,0,"","",0
Sul,PR,41,412853,41021,21ª RS TELEMACO BORBA,2020-12-21,52,"",255,0,4,0,"","",0
Sul,PR,41,412853,41021,21ª RS TELEMACO BORBA,2020-12-22,52,"",266,11,4,0,"","",0
Sul,PR,41,412853,41021,21ª RS TELEMACO BORBA,2020-12-23,52,"",267,1,4,0,"","",0
Sul,PR,41,412853,41021,21ª RS TELEMACO BORBA,2020-12-24,52,"",268,1,4,0,"","",0
Sul,PR,41,412853,41021,21ª RS TELEMACO BORBA,2020-12-25,52,"",268,0,4,0,"","",0
Sul,PR,41,412853,41021,21ª RS TELEMACO BORBA,2020-12-26,52,"",276,8,5,1,"","",0
Sul,PR,41,412853,41021,21ª RS TELEMACO BORBA,2020-12-27,53,"",277,1,5,0,"","",0
Sul,PR,41,412853,41021,21ª RS TELEMACO BORBA,2020-12-28,53,"",282,5,5,0,"","",0
Sul,PR,41,412853,41021,21ª RS TELEMACO BORBA,2020-12-29,53,"",286,4,6,1,"","",0
Sul,PR,41,412853,41021,21ª RS TELEMACO BORBA,2020-12-30,53,"",287,1,7,1,"","",0
Sul,PR,41,412853,41021,21ª RS TELEMACO BORBA,2020-12-31,53,"",287,0,10,3,"","",0
