Sul,PR,41,412710,41021,21ª RS TELEMACO BORBA,2021-01-01,53,"",4627,26,79,0,"","",0
Sul,PR,41,412710,41021,21ª RS TELEMACO BORBA,2021-01-02,53,"",4641,14,79,0,"","",0
Sul,PR,41,412710,41021,21ª RS TELEMACO BORBA,2021-01-03,1,"",4659,18,79,0,"","",0
Sul,PR,41,412710,41021,21ª RS TELEMACO BORBA,2021-01-04,1,"",4674,15,79,0,"","",0
Sul,PR,41,412710,41021,21ª RS TELEMACO BORBA,2021-01-05,1,"",4760,86,79,0,"","",0
Sul,PR,41,412710,41021,21ª RS TELEMACO BORBA,2021-01-06,1,"",4795,35,79,0,"","",0
Sul,PR,41,412710,41021,21ª RS TELEMACO BORBA,2021-01-07,1,"",5417,622,80,1,"","",0
Sul,PR,41,412710,41021,21ª RS TELEMACO BORBA,2021-01-08,1,"",5417,0,80,0,"","",0
Sul,PR,41,412710,41021,21ª RS TELEMACO BORBA,2021-01-09,1,"",5530,113,80,0,"","",0
Sul,PR,41,412710,41021,21ª RS TELEMACO BORBA,2021-01-10,2,"",5541,11,80,0,"","",0
Sul,PR,41,412710,41021,21ª RS TELEMACO BORBA,2021-01-11,2,"",5549,8,80,0,"","",0
Sul,PR,41,412710,41021,21ª RS TELEMACO BORBA,2021-01-12,2,"",5727,178,80,0,"","",0
Sul,PR,41,412710,41021,21ª RS TELEMACO BORBA,2021-01-13,2,"",5757,30,80,0,"","",0
Sul,PR,41,412710,41021,21ª RS TELEMACO BORBA,2021-01-14,2,"",5854,97,80,0,"","",0
Sul,PR,41,412710,41021,21ª RS TELEMACO BORBA,2021-01-15,2,"",5908,54,91,11,"","",0
Sul,PR,41,412710,41021,21ª RS TELEMACO BORBA,2021-01-16,2,"",5940,32,91,0,"","",0
Sul,PR,41,412710,41021,21ª RS TELEMACO BORBA,2021-01-17,3,"",5962,22,91,0,"","",0
Sul,PR,41,412710,41021,21ª RS TELEMACO BORBA,2021-01-18,3,"",5971,9,91,0,"","",0
Sul,PR,41,412710,41021,21ª RS TELEMACO BORBA,2021-01-19,3,"",6025,54,93,2,"","",0
Sul,PR,41,412710,41021,21ª RS TELEMACO BORBA,2021-01-20,3,"",6083,58,94,1,"","",0
Sul,PR,41,412710,41021,21ª RS TELEMACO BORBA,2021-01-21,3,"",6101,18,96,2,"","",0
Sul,PR,41,412710,41021,21ª RS TELEMACO BORBA,2021-01-22,3,"",6113,12,95,-1,"","",0
Sul,PR,41,412710,41021,21ª RS TELEMACO BORBA,2021-01-23,3,"",6166,53,95,0,"","",0
Sul,PR,41,412710,41021,21ª RS TELEMACO BORBA,2021-01-24,4,"",6176,10,95,0,"","",0
Sul,PR,41,412710,41021,21ª RS TELEMACO BORBA,2021-01-25,4,"",6203,27,95,0,"","",0
Sul,PR,41,412710,41021,21ª RS TELEMACO BORBA,2021-01-26,4,"",6344,141,97,2,"","",0
Sul,PR,41,412710,41021,21ª RS TELEMACO BORBA,2021-01-27,4,"",6395,51,97,0,"","",0
Sul,PR,41,412710,41021,21ª RS TELEMACO BORBA,2021-01-28,4,"",6469,74,98,1,"","",0
Sul,PR,41,412710,41021,21ª RS TELEMACO BORBA,2021-01-29,4,"",6545,76,99,1,"","",0
Sul,PR,41,412710,41021,21ª RS TELEMACO BORBA,2021-01-30,4,"",6609,64,101,2,"","",0
Sul,PR,41,412710,41021,21ª RS TELEMACO BORBA,2021-01-31,5,"",6627,18,102,1,"","",0
Sul,PR,41,412710,41021,21ª RS TELEMACO BORBA,2021-02-01,5,"",6674,47,102,0,"","",0
Sul,PR,41,412710,41021,21ª RS TELEMACO BORBA,2021-02-02,5,"",6812,138,104,2,"","",0
Sul,PR,41,412710,41021,21ª RS TELEMACO BORBA,2021-02-03,5,"",6893,81,104,0,"","",0
Sul,PR,41,412710,41021,21ª RS TELEMACO BORBA,2021-02-04,5,"",6949,56,104,0,"","",0
Sul,PR,41,412710,41021,21ª RS TELEMACO BORBA,2021-02-05,5,"",6993,44,104,0,"","",0
Sul,PR,41,412710,41021,21ª RS TELEMACO BORBA,2021-02-06,5,"",7023,30,104,0,"","",0
Sul,PR,41,412710,41021,21ª RS TELEMACO BORBA,2021-02-07,6,"",7041,18,105,1,"","",0
Sul,PR,41,412710,41021,21ª RS TELEMACO BORBA,2021-02-08,6,"",7048,7,105,0,"","",0
Sul,PR,41,412710,41021,21ª RS TELEMACO BORBA,2021-02-09,6,"",7145,97,106,1,"","",0
Sul,PR,41,412710,41021,21ª RS TELEMACO BORBA,2021-02-10,6,"",7207,62,106,0,"","",0
Sul,PR,41,412710,41021,21ª RS TELEMACO BORBA,2021-02-11,6,"",7251,44,106,0,"","",0
Sul,PR,41,412710,41021,21ª RS TELEMACO BORBA,2021-02-12,6,"",7331,80,106,0,"","",0
Sul,PR,41,412710,41021,21ª RS TELEMACO BORBA,2021-02-13,6,"",7366,35,107,1,"","",0
Sul,PR,41,412710,41021,21ª RS TELEMACO BORBA,2021-02-14,7,"",7369,3,107,0,"","",0
Sul,PR,41,412710,41021,21ª RS TELEMACO BORBA,2021-02-15,7,"",7379,10,107,0,"","",0
Sul,PR,41,412710,41021,21ª RS TELEMACO BORBA,2021-02-16,7,"",7450,71,107,0,"","",0
Sul,PR,41,412710,41021,21ª RS TELEMACO BORBA,2021-02-17,7,"",7501,51,108,1,"","",0
Sul,PR,41,412710,41021,21ª RS TELEMACO BORBA,2021-02-18,7,"",7547,46,111,3,"","",0
Sul,PR,41,412710,41021,21ª RS TELEMACO BORBA,2021-02-19,7,"",7584,37,112,1,"","",0
Sul,PR,41,412710,41021,21ª RS TELEMACO BORBA,2021-02-20,7,"",7638,54,115,3,"","",0
Sul,PR,41,412710,41021,21ª RS TELEMACO BORBA,2021-02-21,8,"",7644,6,115,0,"","",0
Sul,PR,41,412710,41021,21ª RS TELEMACO BORBA,2021-02-22,8,"",7646,2,115,0,"","",0
Sul,PR,41,412710,41021,21ª RS TELEMACO BORBA,2021-02-23,8,"",7799,153,115,0,"","",0
Sul,PR,41,412710,41021,21ª RS TELEMACO BORBA,2021-02-24,8,"",7865,66,117,2,"","",0
Sul,PR,41,412710,41021,21ª RS TELEMACO BORBA,2021-02-25,8,"",7966,101,118,1,"","",0
Sul,PR,41,412710,41021,21ª RS TELEMACO BORBA,2021-02-26,8,"",7999,33,118,0,"","",0
Sul,PR,41,412710,41021,21ª RS TELEMACO BORBA,2021-02-27,8,"",8108,109,120,2,"","",0
Sul,PR,41,412710,41021,21ª RS TELEMACO BORBA,2021-02-28,9,"",8131,23,120,0,"","",0
Sul,PR,41,412710,41021,21ª RS TELEMACO BORBA,2021-03-01,9,"",8156,25,120,0,"","",0
Sul,PR,41,412710,41021,21ª RS TELEMACO BORBA,2021-03-02,9,"",8218,62,123,3,"","",0
Sul,PR,41,412710,41021,21ª RS TELEMACO BORBA,2021-03-03,9,"",8265,47,123,0,"","",0
Sul,PR,41,412710,41021,21ª RS TELEMACO BORBA,2021-03-04,9,"",8305,40,123,0,"","",0
Sul,PR,41,412710,41021,21ª RS TELEMACO BORBA,2021-03-05,9,"",8345,40,123,0,"","",0
Sul,PR,41,412710,41021,21ª RS TELEMACO BORBA,2021-03-06,9,"",8403,58,123,0,"","",0
Sul,PR,41,412710,41021,21ª RS TELEMACO BORBA,2021-03-07,10,"",8422,19,125,2,"","",0
Sul,PR,41,412710,41021,21ª RS TELEMACO BORBA,2021-03-08,10,"",8429,7,125,0,"","",0
Sul,PR,41,412710,41021,21ª RS TELEMACO BORBA,2021-03-09,10,"",8487,58,127,2,"","",0
Sul,PR,41,412710,41021,21ª RS TELEMACO BORBA,2021-03-10,10,"",8554,67,127,0,"","",0
Sul,PR,41,412710,41021,21ª RS TELEMACO BORBA,2021-03-11,10,"",8647,93,130,3,"","",0
Sul,PR,41,412710,41021,21ª RS TELEMACO BORBA,2021-03-12,10,"",8700,53,130,0,"","",0
Sul,PR,41,412710,41021,21ª RS TELEMACO BORBA,2021-03-13,10,"",8750,50,130,0,"","",0
Sul,PR,41,412710,41021,21ª RS TELEMACO BORBA,2021-03-14,11,"",8773,23,130,0,"","",0
Sul,PR,41,412710,41021,21ª RS TELEMACO BORBA,2021-03-15,11,"",8792,19,130,0,"","",0
Sul,PR,41,412710,41021,21ª RS TELEMACO BORBA,2021-03-16,11,"",8839,47,133,3,"","",0
Sul,PR,41,412710,41021,21ª RS TELEMACO BORBA,2021-03-17,11,"",8890,51,134,1,"","",0
Sul,PR,41,412710,41021,21ª RS TELEMACO BORBA,2021-03-18,11,"",8937,47,135,1,"","",0
Sul,PR,41,412710,41021,21ª RS TELEMACO BORBA,2021-03-19,11,"",9013,76,137,2,"","",0
Sul,PR,41,412710,41021,21ª RS TELEMACO BORBA,2021-03-20,11,"",9074,61,138,1,"","",0
Sul,PR,41,412710,41021,21ª RS TELEMACO BORBA,2021-03-21,12,"",9089,15,139,1,"","",0
Sul,PR,41,412710,41021,21ª RS TELEMACO BORBA,2021-03-22,12,"",9112,23,139,0,"","",0
Sul,PR,41,412710,41021,21ª RS TELEMACO BORBA,2021-03-23,12,"",9216,104,142,3,"","",0
Sul,PR,41,412710,41021,21ª RS TELEMACO BORBA,2021-03-24,12,"",9278,62,142,0,"","",0
Sul,PR,41,412710,41021,21ª RS TELEMACO BORBA,2021-03-25,12,"",9466,188,145,3,"","",0
Sul,PR,41,412710,41021,21ª RS TELEMACO BORBA,2021-03-26,12,"",9516,50,146,1,"","",0
Sul,PR,41,412710,41021,21ª RS TELEMACO BORBA,2021-03-27,12,"",9567,51,146,0,"","",0
Sul,PR,41,412710,41021,21ª RS TELEMACO BORBA,2021-03-28,13,"",9575,8,146,0,"","",0
Sul,PR,41,412710,41021,21ª RS TELEMACO BORBA,2021-03-29,13,"",9598,23,148,2,"","",0
Sul,PR,41,412710,41021,21ª RS TELEMACO BORBA,2021-03-30,13,"",9642,44,148,0,"","",0
Sul,PR,41,412710,41021,21ª RS TELEMACO BORBA,2021-03-31,13,"",9710,68,153,5,"","",0
Sul,PR,41,412710,41021,21ª RS TELEMACO BORBA,2021-04-01,13,"",9772,62,155,2,"","",0
Sul,PR,41,412710,41021,21ª RS TELEMACO BORBA,2021-04-02,13,"",9860,88,157,2,"","",0
Sul,PR,41,412710,41021,21ª RS TELEMACO BORBA,2021-04-03,13,"",9873,13,157,0,"","",0
Sul,PR,41,412710,41021,21ª RS TELEMACO BORBA,2021-04-04,14,"",9886,13,157,0,"","",0
Sul,PR,41,412710,41021,21ª RS TELEMACO BORBA,2021-04-05,14,"",9910,24,157,0,"","",0
Sul,PR,41,412710,41021,21ª RS TELEMACO BORBA,2021-04-06,14,"",10022,112,157,0,"","",0
Sul,PR,41,412710,41021,21ª RS TELEMACO BORBA,2021-04-07,14,"",10094,72,157,0,"","",0
Sul,PR,41,412710,41021,21ª RS TELEMACO BORBA,2021-04-08,14,"",10168,74,163,6,"","",0
Sul,PR,41,412710,41021,21ª RS TELEMACO BORBA,2021-04-09,14,"",10236,68,163,0,"","",0
Sul,PR,41,412710,41021,21ª RS TELEMACO BORBA,2021-04-10,14,"",10292,56,163,0,"","",0
Sul,PR,41,412710,41021,21ª RS TELEMACO BORBA,2021-04-11,15,"",10308,16,163,0,"","",0
Sul,PR,41,412710,41021,21ª RS TELEMACO BORBA,2021-04-12,15,"",10311,3,163,0,"","",0
Sul,PR,41,412710,41021,21ª RS TELEMACO BORBA,2021-04-13,15,"",10414,103,166,3,"","",0
Sul,PR,41,412710,41021,21ª RS TELEMACO BORBA,2021-04-14,15,"",10490,76,166,0,"","",0
Sul,PR,41,412710,41021,21ª RS TELEMACO BORBA,2021-04-15,15,"",10532,42,167,1,"","",0
Sul,PR,41,412710,41021,21ª RS TELEMACO BORBA,2021-04-16,15,"",10606,74,168,1,"","",0
Sul,PR,41,412710,41021,21ª RS TELEMACO BORBA,2021-04-17,15,"",10634,28,168,0,"","",0
Sul,PR,41,412710,41021,21ª RS TELEMACO BORBA,2021-04-18,16,"",10647,13,170,2,"","",0
Sul,PR,41,412710,41021,21ª RS TELEMACO BORBA,2021-04-19,16,"",10658,11,170,0,"","",0
Sul,PR,41,412710,41021,21ª RS TELEMACO BORBA,2021-04-20,16,"",10738,80,171,1,"","",0
Sul,PR,41,412710,41021,21ª RS TELEMACO BORBA,2021-04-21,16,"",10793,55,172,1,"","",0
Sul,PR,41,412710,41021,21ª RS TELEMACO BORBA,2021-04-22,16,"",10822,29,173,1,"","",0
Sul,PR,41,412710,41021,21ª RS TELEMACO BORBA,2021-04-23,16,"",10886,64,174,1,"","",0
Sul,PR,41,412710,41021,21ª RS TELEMACO BORBA,2021-04-24,16,"",10956,70,174,0,"","",0
Sul,PR,41,412710,41021,21ª RS TELEMACO BORBA,2021-04-25,17,"",10991,35,178,4,"","",0
Sul,PR,41,412710,41021,21ª RS TELEMACO BORBA,2021-04-26,17,"",11028,37,178,0,"","",0
Sul,PR,41,412710,41021,21ª RS TELEMACO BORBA,2021-04-27,17,"",11083,55,178,0,"","",0
Sul,PR,41,412710,41021,21ª RS TELEMACO BORBA,2021-04-28,17,"",11149,66,180,2,"","",0
Sul,PR,41,412710,41021,21ª RS TELEMACO BORBA,2021-04-29,17,"",11261,112,182,2,"","",0
Sul,PR,41,412710,41021,21ª RS TELEMACO BORBA,2021-04-30,17,"",11317,56,183,1,"","",0
Sul,PR,41,412710,41021,21ª RS TELEMACO BORBA,2021-05-01,17,"",11358,41,184,1,"","",0
Sul,PR,41,412710,41021,21ª RS TELEMACO BORBA,2021-05-02,18,"",11366,8,187,3,"","",0
Sul,PR,41,412710,41021,21ª RS TELEMACO BORBA,2021-05-03,18,"",11379,13,187,0,"","",0
Sul,PR,41,412710,41021,21ª RS TELEMACO BORBA,2021-05-04,18,"",11491,112,190,3,"","",0
Sul,PR,41,412710,41021,21ª RS TELEMACO BORBA,2021-05-05,18,"",11543,52,190,0,"","",0
Sul,PR,41,412710,41021,21ª RS TELEMACO BORBA,2021-05-06,18,"",11647,104,192,2,"","",0
Sul,PR,41,412710,41021,21ª RS TELEMACO BORBA,2021-05-07,18,"",11764,117,194,2,"","",0
Sul,PR,41,412710,41021,21ª RS TELEMACO BORBA,2021-05-08,18,"",11814,50,197,3,"","",0
Sul,PR,41,412710,41021,21ª RS TELEMACO BORBA,2021-05-09,19,"",11851,37,197,0,"","",0
Sul,PR,41,412710,41021,21ª RS TELEMACO BORBA,2021-05-10,19,"",11944,93,197,0,"","",0
Sul,PR,41,412710,41021,21ª RS TELEMACO BORBA,2021-05-11,19,"",11974,30,197,0,"","",0
Sul,PR,41,412710,41021,21ª RS TELEMACO BORBA,2021-05-12,19,"",12060,86,197,0,"","",0
Sul,PR,41,412710,41021,21ª RS TELEMACO BORBA,2021-05-13,19,"",12160,100,197,0,"","",0
Sul,PR,41,412710,41021,21ª RS TELEMACO BORBA,2021-05-14,19,"",12247,87,198,1,"","",0
Sul,PR,41,412710,41021,21ª RS TELEMACO BORBA,2021-05-15,19,"",12311,64,205,7,"","",0
Sul,PR,41,412710,41021,21ª RS TELEMACO BORBA,2021-05-16,20,"",12370,59,205,0,"","",0
Sul,PR,41,412710,41021,21ª RS TELEMACO BORBA,2021-05-17,20,"",12390,20,205,0,"","",0
Sul,PR,41,412710,41021,21ª RS TELEMACO BORBA,2021-05-18,20,"",12493,103,206,1,"","",0
Sul,PR,41,412710,41021,21ª RS TELEMACO BORBA,2021-05-19,20,"",12567,74,206,0,"","",0
Sul,PR,41,412710,41021,21ª RS TELEMACO BORBA,2021-05-20,20,"",12693,126,206,0,"","",0
Sul,PR,41,412710,41021,21ª RS TELEMACO BORBA,2021-05-21,20,"",12777,84,231,25,"","",0
Sul,PR,41,412710,41021,21ª RS TELEMACO BORBA,2021-05-22,20,"",12813,36,233,2,"","",0
Sul,PR,41,412710,41021,21ª RS TELEMACO BORBA,2021-05-23,21,"",12815,2,233,0,"","",0
Sul,PR,41,412710,41021,21ª RS TELEMACO BORBA,2021-05-24,21,"",12824,9,233,0,"","",0
Sul,PR,41,412710,41021,21ª RS TELEMACO BORBA,2021-05-25,21,"",12837,13,233,0,"","",0
Sul,PR,41,412710,41021,21ª RS TELEMACO BORBA,2021-05-26,21,"",12877,40,233,0,"","",0
Sul,PR,41,412710,41021,21ª RS TELEMACO BORBA,2021-05-27,21,"",12941,64,233,0,"","",0
Sul,PR,41,412710,41021,21ª RS TELEMACO BORBA,2021-05-28,21,"",13002,61,233,0,"","",0
Sul,PR,41,412710,41021,21ª RS TELEMACO BORBA,2021-05-29,21,"",13064,62,233,0,"","",0
Sul,PR,41,412710,41021,21ª RS TELEMACO BORBA,2021-05-30,22,"",13076,12,233,0,"","",0
Sul,PR,41,412710,41021,21ª RS TELEMACO BORBA,2021-05-31,22,"",13080,4,233,0,"","",0
Sul,PR,41,412710,41021,21ª RS TELEMACO BORBA,2021-06-01,22,"",13116,36,245,12,"","",0
Sul,PR,41,412710,41021,21ª RS TELEMACO BORBA,2021-06-02,22,"",13168,52,246,1,"","",0
Sul,PR,41,412710,41021,21ª RS TELEMACO BORBA,2021-06-03,22,"",13200,32,252,6,"","",0
Sul,PR,41,412710,41021,21ª RS TELEMACO BORBA,2021-06-04,22,"",13283,83,254,2,"","",0
Sul,PR,41,412710,41021,21ª RS TELEMACO BORBA,2021-06-05,22,"",13319,36,254,0,"","",0
Sul,PR,41,412710,41021,21ª RS TELEMACO BORBA,2021-06-06,23,"",13331,12,256,2,"","",0
Sul,PR,41,412710,41021,21ª RS TELEMACO BORBA,2021-06-07,23,"",13340,9,256,0,"","",0
Sul,PR,41,412710,41021,21ª RS TELEMACO BORBA,2021-06-08,23,"",13355,15,256,0,"","",0
Sul,PR,41,412710,41021,21ª RS TELEMACO BORBA,2021-06-09,23,"",13382,27,261,5,"","",0
Sul,PR,41,412710,41021,21ª RS TELEMACO BORBA,2021-06-10,23,"",13449,67,263,2,"","",0
Sul,PR,41,412710,41021,21ª RS TELEMACO BORBA,2021-06-11,23,"",13500,51,265,2,"","",0
Sul,PR,41,412710,41021,21ª RS TELEMACO BORBA,2021-06-12,23,"",13541,41,266,1,"","",0
Sul,PR,41,412710,41021,21ª RS TELEMACO BORBA,2021-06-13,24,"",13542,1,268,2,"","",0
Sul,PR,41,412710,41021,21ª RS TELEMACO BORBA,2021-06-14,24,"",13547,5,268,0,"","",0
Sul,PR,41,412710,41021,21ª RS TELEMACO BORBA,2021-06-15,24,"",13577,30,268,0,"","",0
Sul,PR,41,412710,41021,21ª RS TELEMACO BORBA,2021-06-16,24,"",13707,130,280,12,"","",0
Sul,PR,41,412710,41021,21ª RS TELEMACO BORBA,2021-06-17,24,"",13772,65,282,2,"","",0
Sul,PR,41,412710,41021,21ª RS TELEMACO BORBA,2021-06-18,24,"",13927,155,296,14,"","",0
Sul,PR,41,412710,41021,21ª RS TELEMACO BORBA,2021-06-19,24,"",14036,109,301,5,"","",0
Sul,PR,41,412710,41021,21ª RS TELEMACO BORBA,2021-06-20,25,"",14153,117,301,0,"","",0
Sul,PR,41,412710,41021,21ª RS TELEMACO BORBA,2021-06-21,25,"",14337,184,309,8,"","",0
Sul,PR,41,412710,41021,21ª RS TELEMACO BORBA,2021-06-22,25,"",14535,198,312,3,"","",0
Sul,PR,41,412710,41021,21ª RS TELEMACO BORBA,2021-06-23,25,"",14641,106,313,1,"","",0
Sul,PR,41,412710,41021,21ª RS TELEMACO BORBA,2021-06-24,25,"",14777,136,314,1,"","",0
Sul,PR,41,412710,41021,21ª RS TELEMACO BORBA,2021-06-25,25,"",14894,117,316,2,"","",0
Sul,PR,41,412710,41021,21ª RS TELEMACO BORBA,2021-06-26,25,"",14936,42,316,0,"","",0
Sul,PR,41,412710,41021,21ª RS TELEMACO BORBA,2021-06-27,26,"",14988,52,316,0,"","",0
Sul,PR,41,412710,41021,21ª RS TELEMACO BORBA,2021-06-28,26,"",15073,85,316,0,"","",0
Sul,PR,41,412710,41021,21ª RS TELEMACO BORBA,2021-06-29,26,"",15127,54,317,1,"","",0
Sul,PR,41,412710,41021,21ª RS TELEMACO BORBA,2021-06-30,26,"",15182,55,319,2,"","",0
