Sul,PR,41,412710,41021,21ª RS TELEMACO BORBA,2020-03-27,13,"",0,0,0,0,"","",0
Sul,PR,41,412710,41021,21ª RS TELEMACO BORBA,2020-03-28,13,"",1,1,0,0,"","",0
Sul,PR,41,412710,41021,21ª RS TELEMACO BORBA,2020-03-29,14,"",1,0,0,0,"","",0
Sul,PR,41,412710,41021,21ª RS TELEMACO BORBA,2020-03-30,14,"",1,0,0,0,"","",0
Sul,PR,41,412710,41021,21ª RS TELEMACO BORBA,2020-03-31,14,"",2,1,0,0,"","",0
Sul,PR,41,412710,41021,21ª RS TELEMACO BORBA,2020-04-01,14,"",2,0,0,0,"","",0
Sul,PR,41,412710,41021,21ª RS TELEMACO BORBA,2020-04-02,14,"",3,1,0,0,"","",0
Sul,PR,41,412710,41021,21ª RS TELEMACO BORBA,2020-04-03,14,"",4,1,0,0,"","",0
Sul,PR,41,412710,41021,21ª RS TELEMACO BORBA,2020-04-04,14,"",4,0,0,0,"","",0
Sul,PR,41,412710,41021,21ª RS TELEMACO BORBA,2020-04-05,15,"",6,2,0,0,"","",0
Sul,PR,41,412710,41021,21ª RS TELEMACO BORBA,2020-04-06,15,"",6,0,0,0,"","",0
Sul,PR,41,412710,41021,21ª RS TELEMACO BORBA,2020-04-07,15,"",6,0,0,0,"","",0
Sul,PR,41,412710,41021,21ª RS TELEMACO BORBA,2020-04-08,15,"",6,0,0,0,"","",0
Sul,PR,41,412710,41021,21ª RS TELEMACO BORBA,2020-04-09,15,"",6,0,0,0,"","",0
Sul,PR,41,412710,41021,21ª RS TELEMACO BORBA,2020-04-10,15,"",6,0,0,0,"","",0
Sul,PR,41,412710,41021,21ª RS TELEMACO BORBA,2020-04-11,15,"",6,0,0,0,"","",0
Sul,PR,41,412710,41021,21ª RS TELEMACO BORBA,2020-04-12,16,"",6,0,0,0,"","",0
Sul,PR,41,412710,41021,21ª RS TELEMACO BORBA,2020-04-13,16,"",6,0,0,0,"","",0
Sul,PR,41,412710,41021,21ª RS TELEMACO BORBA,2020-04-14,16,"",6,0,0,0,"","",0
Sul,PR,41,412710,41021,21ª RS TELEMACO BORBA,2020-04-15,16,"",6,0,0,0,"","",0
Sul,PR,41,412710,41021,21ª RS TELEMACO BORBA,2020-04-16,16,"",6,0,0,0,"","",0
Sul,PR,41,412710,41021,21ª RS TELEMACO BORBA,2020-04-17,16,"",6,0,0,0,"","",0
Sul,PR,41,412710,41021,21ª RS TELEMACO BORBA,2020-04-18,16,"",6,0,0,0,"","",0
Sul,PR,41,412710,41021,21ª RS TELEMACO BORBA,2020-04-19,17,"",6,0,0,0,"","",0
Sul,PR,41,412710,41021,21ª RS TELEMACO BORBA,2020-04-20,17,"",7,1,0,0,"","",0
Sul,PR,41,412710,41021,21ª RS TELEMACO BORBA,2020-04-21,17,"",8,1,0,0,"","",0
Sul,PR,41,412710,41021,21ª RS TELEMACO BORBA,2020-04-22,17,"",11,3,0,0,"","",0
Sul,PR,41,412710,41021,21ª RS TELEMACO BORBA,2020-04-23,17,"",11,0,0,0,"","",0
Sul,PR,41,412710,41021,21ª RS TELEMACO BORBA,2020-04-24,17,"",11,0,0,0,"","",0
Sul,PR,41,412710,41021,21ª RS TELEMACO BORBA,2020-04-25,17,"",11,0,0,0,"","",0
Sul,PR,41,412710,41021,21ª RS TELEMACO BORBA,2020-04-26,18,"",12,1,0,0,"","",0
Sul,PR,41,412710,41021,21ª RS TELEMACO BORBA,2020-04-27,18,"",12,0,0,0,"","",0
Sul,PR,41,412710,41021,21ª RS TELEMACO BORBA,2020-04-28,18,"",12,0,0,0,"","",0
Sul,PR,41,412710,41021,21ª RS TELEMACO BORBA,2020-04-29,18,"",12,0,0,0,"","",0
Sul,PR,41,412710,41021,21ª RS TELEMACO BORBA,2020-04-30,18,"",14,2,0,0,"","",0
Sul,PR,41,412710,41021,21ª RS TELEMACO BORBA,2020-05-01,18,"",15,1,0,0,"","",0
Sul,PR,41,412710,41021,21ª RS TELEMACO BORBA,2020-05-02,18,"",15,0,0,0,"","",0
Sul,PR,41,412710,41021,21ª RS TELEMACO BORBA,2020-05-03,19,"",17,2,0,0,"","",0
Sul,PR,41,412710,41021,21ª RS TELEMACO BORBA,2020-05-04,19,"",18,1,0,0,"","",0
Sul,PR,41,412710,41021,21ª RS TELEMACO BORBA,2020-05-05,19,"",19,1,0,0,"","",0
Sul,PR,41,412710,41021,21ª RS TELEMACO BORBA,2020-05-06,19,"",19,0,0,0,"","",0
Sul,PR,41,412710,41021,21ª RS TELEMACO BORBA,2020-05-07,19,"",20,1,0,0,"","",0
Sul,PR,41,412710,41021,21ª RS TELEMACO BORBA,2020-05-08,19,"",20,0,0,0,"","",0
Sul,PR,41,412710,41021,21ª RS TELEMACO BORBA,2020-05-09,19,"",21,1,0,0,"","",0
Sul,PR,41,412710,41021,21ª RS TELEMACO BORBA,2020-05-10,20,"",21,0,0,0,"","",0
Sul,PR,41,412710,41021,21ª RS TELEMACO BORBA,2020-05-11,20,"",21,0,0,0,"","",0
Sul,PR,41,412710,41021,21ª RS TELEMACO BORBA,2020-05-12,20,"",22,1,0,0,"","",0
Sul,PR,41,412710,41021,21ª RS TELEMACO BORBA,2020-05-13,20,"",22,0,0,0,"","",0
Sul,PR,41,412710,41021,21ª RS TELEMACO BORBA,2020-05-14,20,"",22,0,0,0,"","",0
Sul,PR,41,412710,41021,21ª RS TELEMACO BORBA,2020-05-15,20,"",22,0,0,0,"","",0
Sul,PR,41,412710,41021,21ª RS TELEMACO BORBA,2020-05-16,20,"",22,0,0,0,"","",0
Sul,PR,41,412710,41021,21ª RS TELEMACO BORBA,2020-05-17,21,"",22,0,0,0,"","",0
Sul,PR,41,412710,41021,21ª RS TELEMACO BORBA,2020-05-18,21,"",23,1,0,0,"","",0
Sul,PR,41,412710,41021,21ª RS TELEMACO BORBA,2020-05-19,21,"",24,1,0,0,"","",0
Sul,PR,41,412710,41021,21ª RS TELEMACO BORBA,2020-05-20,21,"",24,0,0,0,"","",0
Sul,PR,41,412710,41021,21ª RS TELEMACO BORBA,2020-05-21,21,"",25,1,0,0,"","",0
Sul,PR,41,412710,41021,21ª RS TELEMACO BORBA,2020-05-22,21,"",26,1,0,0,"","",0
Sul,PR,41,412710,41021,21ª RS TELEMACO BORBA,2020-05-23,21,"",26,0,0,0,"","",0
Sul,PR,41,412710,41021,21ª RS TELEMACO BORBA,2020-05-24,22,"",27,1,0,0,"","",0
Sul,PR,41,412710,41021,21ª RS TELEMACO BORBA,2020-05-25,22,"",27,0,0,0,"","",0
Sul,PR,41,412710,41021,21ª RS TELEMACO BORBA,2020-05-26,22,"",28,1,0,0,"","",0
Sul,PR,41,412710,41021,21ª RS TELEMACO BORBA,2020-05-27,22,"",29,1,1,1,"","",0
Sul,PR,41,412710,41021,21ª RS TELEMACO BORBA,2020-05-28,22,"",29,0,1,0,"","",0
Sul,PR,41,412710,41021,21ª RS TELEMACO BORBA,2020-05-29,22,"",30,1,1,0,"","",0
Sul,PR,41,412710,41021,21ª RS TELEMACO BORBA,2020-05-30,22,"",30,0,1,0,"","",0
Sul,PR,41,412710,41021,21ª RS TELEMACO BORBA,2020-05-31,23,"",32,2,1,0,"","",0
Sul,PR,41,412710,41021,21ª RS TELEMACO BORBA,2020-06-01,23,"",33,1,1,0,"","",0
Sul,PR,41,412710,41021,21ª RS TELEMACO BORBA,2020-06-02,23,"",34,1,1,0,"","",0
Sul,PR,41,412710,41021,21ª RS TELEMACO BORBA,2020-06-03,23,"",35,1,1,0,"","",0
Sul,PR,41,412710,41021,21ª RS TELEMACO BORBA,2020-06-04,23,"",35,0,1,0,"","",0
Sul,PR,41,412710,41021,21ª RS TELEMACO BORBA,2020-06-05,23,"",36,1,1,0,"","",0
Sul,PR,41,412710,41021,21ª RS TELEMACO BORBA,2020-06-06,23,"",36,0,1,0,"","",0
Sul,PR,41,412710,41021,21ª RS TELEMACO BORBA,2020-06-07,24,"",37,1,1,0,"","",0
Sul,PR,41,412710,41021,21ª RS TELEMACO BORBA,2020-06-08,24,"",37,0,1,0,"","",0
Sul,PR,41,412710,41021,21ª RS TELEMACO BORBA,2020-06-09,24,"",39,2,1,0,"","",0
Sul,PR,41,412710,41021,21ª RS TELEMACO BORBA,2020-06-10,24,"",40,1,1,0,"","",0
Sul,PR,41,412710,41021,21ª RS TELEMACO BORBA,2020-06-11,24,"",42,2,1,0,"","",0
Sul,PR,41,412710,41021,21ª RS TELEMACO BORBA,2020-06-12,24,"",42,0,1,0,"","",0
Sul,PR,41,412710,41021,21ª RS TELEMACO BORBA,2020-06-13,24,"",42,0,1,0,"","",0
Sul,PR,41,412710,41021,21ª RS TELEMACO BORBA,2020-06-14,25,"",42,0,1,0,"","",0
Sul,PR,41,412710,41021,21ª RS TELEMACO BORBA,2020-06-15,25,"",43,1,1,0,"","",0
Sul,PR,41,412710,41021,21ª RS TELEMACO BORBA,2020-06-16,25,"",50,7,1,0,"","",0
Sul,PR,41,412710,41021,21ª RS TELEMACO BORBA,2020-06-17,25,"",52,2,1,0,"","",0
Sul,PR,41,412710,41021,21ª RS TELEMACO BORBA,2020-06-18,25,"",56,4,1,0,"","",0
Sul,PR,41,412710,41021,21ª RS TELEMACO BORBA,2020-06-19,25,"",59,3,1,0,"","",0
Sul,PR,41,412710,41021,21ª RS TELEMACO BORBA,2020-06-20,25,"",60,1,1,0,"","",0
Sul,PR,41,412710,41021,21ª RS TELEMACO BORBA,2020-06-21,26,"",60,0,1,0,"","",0
Sul,PR,41,412710,41021,21ª RS TELEMACO BORBA,2020-06-22,26,"",63,3,1,0,"","",0
Sul,PR,41,412710,41021,21ª RS TELEMACO BORBA,2020-06-23,26,"",67,4,2,1,"","",0
Sul,PR,41,412710,41021,21ª RS TELEMACO BORBA,2020-06-24,26,"",83,16,2,0,"","",0
Sul,PR,41,412710,41021,21ª RS TELEMACO BORBA,2020-06-25,26,"",87,4,2,0,"","",0
Sul,PR,41,412710,41021,21ª RS TELEMACO BORBA,2020-06-26,26,"",87,0,2,0,"","",0
Sul,PR,41,412710,41021,21ª RS TELEMACO BORBA,2020-06-27,26,"",90,3,2,0,"","",0
Sul,PR,41,412710,41021,21ª RS TELEMACO BORBA,2020-06-28,27,"",96,6,2,0,"","",0
Sul,PR,41,412710,41021,21ª RS TELEMACO BORBA,2020-06-29,27,"",96,0,2,0,"","",0
Sul,PR,41,412710,41021,21ª RS TELEMACO BORBA,2020-06-30,27,"",101,5,2,0,"","",0
Sul,PR,41,412710,41021,21ª RS TELEMACO BORBA,2020-07-01,27,"",102,1,2,0,"","",0
Sul,PR,41,412710,41021,21ª RS TELEMACO BORBA,2020-07-02,27,"",107,5,2,0,"","",0
Sul,PR,41,412710,41021,21ª RS TELEMACO BORBA,2020-07-03,27,"",122,15,2,0,"","",0
Sul,PR,41,412710,41021,21ª RS TELEMACO BORBA,2020-07-04,27,"",137,15,2,0,"","",0
Sul,PR,41,412710,41021,21ª RS TELEMACO BORBA,2020-07-05,28,"",138,1,2,0,"","",0
Sul,PR,41,412710,41021,21ª RS TELEMACO BORBA,2020-07-06,28,"",147,9,2,0,"","",0
Sul,PR,41,412710,41021,21ª RS TELEMACO BORBA,2020-07-07,28,"",154,7,2,0,"","",0
Sul,PR,41,412710,41021,21ª RS TELEMACO BORBA,2020-07-08,28,"",163,9,2,0,"","",0
Sul,PR,41,412710,41021,21ª RS TELEMACO BORBA,2020-07-09,28,"",166,3,2,0,"","",0
Sul,PR,41,412710,41021,21ª RS TELEMACO BORBA,2020-07-10,28,"",174,8,2,0,"","",0
Sul,PR,41,412710,41021,21ª RS TELEMACO BORBA,2020-07-11,28,"",176,2,3,1,"","",0
Sul,PR,41,412710,41021,21ª RS TELEMACO BORBA,2020-07-12,29,"",183,7,4,1,"","",0
Sul,PR,41,412710,41021,21ª RS TELEMACO BORBA,2020-07-13,29,"",183,0,4,0,"","",0
Sul,PR,41,412710,41021,21ª RS TELEMACO BORBA,2020-07-14,29,"",206,23,5,1,"","",0
Sul,PR,41,412710,41021,21ª RS TELEMACO BORBA,2020-07-15,29,"",215,9,5,0,"","",0
Sul,PR,41,412710,41021,21ª RS TELEMACO BORBA,2020-07-16,29,"",227,12,6,1,"","",0
Sul,PR,41,412710,41021,21ª RS TELEMACO BORBA,2020-07-17,29,"",239,12,6,0,"","",0
Sul,PR,41,412710,41021,21ª RS TELEMACO BORBA,2020-07-18,29,"",264,25,6,0,"","",0
Sul,PR,41,412710,41021,21ª RS TELEMACO BORBA,2020-07-19,30,"",264,0,6,0,"","",0
Sul,PR,41,412710,41021,21ª RS TELEMACO BORBA,2020-07-20,30,"",303,39,6,0,"","",0
Sul,PR,41,412710,41021,21ª RS TELEMACO BORBA,2020-07-21,30,"",320,17,6,0,"","",0
Sul,PR,41,412710,41021,21ª RS TELEMACO BORBA,2020-07-22,30,"",359,39,7,1,"","",0
Sul,PR,41,412710,41021,21ª RS TELEMACO BORBA,2020-07-23,30,"",378,19,7,0,"","",0
Sul,PR,41,412710,41021,21ª RS TELEMACO BORBA,2020-07-24,30,"",403,25,7,0,"","",0
Sul,PR,41,412710,41021,21ª RS TELEMACO BORBA,2020-07-25,30,"",423,20,8,1,"","",0
Sul,PR,41,412710,41021,21ª RS TELEMACO BORBA,2020-07-26,31,"",449,26,8,0,"","",0
Sul,PR,41,412710,41021,21ª RS TELEMACO BORBA,2020-07-27,31,"",454,5,8,0,"","",0
Sul,PR,41,412710,41021,21ª RS TELEMACO BORBA,2020-07-28,31,"",484,30,9,1,"","",0
Sul,PR,41,412710,41021,21ª RS TELEMACO BORBA,2020-07-29,31,"",511,27,10,1,"","",0
Sul,PR,41,412710,41021,21ª RS TELEMACO BORBA,2020-07-30,31,"",549,38,10,0,"","",0
Sul,PR,41,412710,41021,21ª RS TELEMACO BORBA,2020-07-31,31,"",556,7,10,0,"","",0
