Sul,PR,41,412170,41021,21ª RS TELEMACO BORBA,2020-08-01,31,"",103,2,1,0,"","",0
Sul,PR,41,412170,41021,21ª RS TELEMACO BORBA,2020-08-02,32,"",106,3,1,0,"","",0
Sul,PR,41,412170,41021,21ª RS TELEMACO BORBA,2020-08-03,32,"",106,0,1,0,"","",0
Sul,PR,41,412170,41021,21ª RS TELEMACO BORBA,2020-08-04,32,"",118,12,2,1,"","",0
Sul,PR,41,412170,41021,21ª RS TELEMACO BORBA,2020-08-05,32,"",123,5,2,0,"","",0
Sul,PR,41,412170,41021,21ª RS TELEMACO BORBA,2020-08-06,32,"",123,0,2,0,"","",0
Sul,PR,41,412170,41021,21ª RS TELEMACO BORBA,2020-08-07,32,"",123,0,2,0,"","",0
Sul,PR,41,412170,41021,21ª RS TELEMACO BORBA,2020-08-08,32,"",123,0,2,0,"","",0
Sul,PR,41,412170,41021,21ª RS TELEMACO BORBA,2020-08-09,33,"",123,0,2,0,"","",0
Sul,PR,41,412170,41021,21ª RS TELEMACO BORBA,2020-08-10,33,"",130,7,3,1,"","",0
Sul,PR,41,412170,41021,21ª RS TELEMACO BORBA,2020-08-11,33,"",135,5,3,0,"","",0
Sul,PR,41,412170,41021,21ª RS TELEMACO BORBA,2020-08-12,33,"",136,1,3,0,"","",0
Sul,PR,41,412170,41021,21ª RS TELEMACO BORBA,2020-08-13,33,"",136,0,3,0,"","",0
Sul,PR,41,412170,41021,21ª RS TELEMACO BORBA,2020-08-14,33,"",140,4,3,0,"","",0
Sul,PR,41,412170,41021,21ª RS TELEMACO BORBA,2020-08-15,33,"",147,7,3,0,"","",0
Sul,PR,41,412170,41021,21ª RS TELEMACO BORBA,2020-08-16,34,"",149,2,3,0,"","",0
Sul,PR,41,412170,41021,21ª RS TELEMACO BORBA,2020-08-17,34,"",153,4,3,0,"","",0
Sul,PR,41,412170,41021,21ª RS TELEMACO BORBA,2020-08-18,34,"",157,4,3,0,"","",0
Sul,PR,41,412170,41021,21ª RS TELEMACO BORBA,2020-08-19,34,"",159,2,3,0,"","",0
Sul,PR,41,412170,41021,21ª RS TELEMACO BORBA,2020-08-20,34,"",160,1,3,0,"","",0
Sul,PR,41,412170,41021,21ª RS TELEMACO BORBA,2020-08-21,34,"",164,4,3,0,"","",0
Sul,PR,41,412170,41021,21ª RS TELEMACO BORBA,2020-08-22,34,"",165,1,3,0,"","",0
Sul,PR,41,412170,41021,21ª RS TELEMACO BORBA,2020-08-23,35,"",165,0,3,0,"","",0
Sul,PR,41,412170,41021,21ª RS TELEMACO BORBA,2020-08-24,35,"",171,6,4,1,"","",0
Sul,PR,41,412170,41021,21ª RS TELEMACO BORBA,2020-08-25,35,"",174,3,4,0,"","",0
Sul,PR,41,412170,41021,21ª RS TELEMACO BORBA,2020-08-26,35,"",174,0,4,0,"","",0
Sul,PR,41,412170,41021,21ª RS TELEMACO BORBA,2020-08-27,35,"",177,3,4,0,"","",0
Sul,PR,41,412170,41021,21ª RS TELEMACO BORBA,2020-08-28,35,"",177,0,4,0,"","",0
Sul,PR,41,412170,41021,21ª RS TELEMACO BORBA,2020-08-29,35,"",178,1,4,0,"","",0
Sul,PR,41,412170,41021,21ª RS TELEMACO BORBA,2020-08-30,36,"",180,2,4,0,"","",0
Sul,PR,41,412170,41021,21ª RS TELEMACO BORBA,2020-08-31,36,"",185,5,4,0,"","",0
Sul,PR,41,412170,41021,21ª RS TELEMACO BORBA,2020-09-01,36,"",186,1,4,0,"","",0
Sul,PR,41,412170,41021,21ª RS TELEMACO BORBA,2020-09-02,36,"",189,3,4,0,"","",0
Sul,PR,41,412170,41021,21ª RS TELEMACO BORBA,2020-09-03,36,"",189,0,4,0,"","",0
Sul,PR,41,412170,41021,21ª RS TELEMACO BORBA,2020-09-04,36,"",188,-1,4,0,"","",0
Sul,PR,41,412170,41021,21ª RS TELEMACO BORBA,2020-09-05,36,"",189,1,4,0,"","",0
Sul,PR,41,412170,41021,21ª RS TELEMACO BORBA,2020-09-06,37,"",189,0,4,0,"","",0
Sul,PR,41,412170,41021,21ª RS TELEMACO BORBA,2020-09-07,37,"",189,0,4,0,"","",0
Sul,PR,41,412170,41021,21ª RS TELEMACO BORBA,2020-09-08,37,"",189,0,4,0,"","",0
Sul,PR,41,412170,41021,21ª RS TELEMACO BORBA,2020-09-09,37,"",190,1,5,1,"","",0
Sul,PR,41,412170,41021,21ª RS TELEMACO BORBA,2020-09-10,37,"",190,0,5,0,"","",0
Sul,PR,41,412170,41021,21ª RS TELEMACO BORBA,2020-09-11,37,"",191,1,5,0,"","",0
Sul,PR,41,412170,41021,21ª RS TELEMACO BORBA,2020-09-12,37,"",191,0,5,0,"","",0
Sul,PR,41,412170,41021,21ª RS TELEMACO BORBA,2020-09-13,38,"",191,0,5,0,"","",0
Sul,PR,41,412170,41021,21ª RS TELEMACO BORBA,2020-09-14,38,"",191,0,5,0,"","",0
Sul,PR,41,412170,41021,21ª RS TELEMACO BORBA,2020-09-15,38,"",191,0,5,0,"","",0
Sul,PR,41,412170,41021,21ª RS TELEMACO BORBA,2020-09-16,38,"",192,1,6,1,"","",0
Sul,PR,41,412170,41021,21ª RS TELEMACO BORBA,2020-09-17,38,"",192,0,6,0,"","",0
Sul,PR,41,412170,41021,21ª RS TELEMACO BORBA,2020-09-18,38,"",193,1,6,0,"","",0
Sul,PR,41,412170,41021,21ª RS TELEMACO BORBA,2020-09-19,38,"",193,0,6,0,"","",0
Sul,PR,41,412170,41021,21ª RS TELEMACO BORBA,2020-09-20,39,"",194,1,6,0,"","",0
Sul,PR,41,412170,41021,21ª RS TELEMACO BORBA,2020-09-21,39,"",194,0,6,0,"","",0
Sul,PR,41,412170,41021,21ª RS TELEMACO BORBA,2020-09-22,39,"",194,0,6,0,"","",0
Sul,PR,41,412170,41021,21ª RS TELEMACO BORBA,2020-09-23,39,"",194,0,6,0,"","",0
Sul,PR,41,412170,41021,21ª RS TELEMACO BORBA,2020-09-24,39,"",195,1,6,0,"","",0
Sul,PR,41,412170,41021,21ª RS TELEMACO BORBA,2020-09-25,39,"",196,1,6,0,"","",0
Sul,PR,41,412170,41021,21ª RS TELEMACO BORBA,2020-09-26,39,"",196,0,6,0,"","",0
Sul,PR,41,412170,41021,21ª RS TELEMACO BORBA,2020-09-27,40,"",198,2,6,0,"","",0
Sul,PR,41,412170,41021,21ª RS TELEMACO BORBA,2020-09-28,40,"",198,0,6,0,"","",0
Sul,PR,41,412170,41021,21ª RS TELEMACO BORBA,2020-09-29,40,"",198,0,6,0,"","",0
Sul,PR,41,412170,41021,21ª RS TELEMACO BORBA,2020-09-30,40,"",198,0,6,0,"","",0
Sul,PR,41,412170,41021,21ª RS TELEMACO BORBA,2020-10-01,40,"",198,0,6,0,"","",0
Sul,PR,41,412170,41021,21ª RS TELEMACO BORBA,2020-10-02,40,"",200,2,6,0,"","",0
Sul,PR,41,412170,41021,21ª RS TELEMACO BORBA,2020-10-03,40,"",203,3,6,0,"","",0
Sul,PR,41,412170,41021,21ª RS TELEMACO BORBA,2020-10-04,41,"",203,0,6,0,"","",0
Sul,PR,41,412170,41021,21ª RS TELEMACO BORBA,2020-10-05,41,"",203,0,6,0,"","",0
Sul,PR,41,412170,41021,21ª RS TELEMACO BORBA,2020-10-06,41,"",203,0,6,0,"","",0
Sul,PR,41,412170,41021,21ª RS TELEMACO BORBA,2020-10-07,41,"",203,0,6,0,"","",0
Sul,PR,41,412170,41021,21ª RS TELEMACO BORBA,2020-10-08,41,"",203,0,6,0,"","",0
Sul,PR,41,412170,41021,21ª RS TELEMACO BORBA,2020-10-09,41,"",203,0,6,0,"","",0
Sul,PR,41,412170,41021,21ª RS TELEMACO BORBA,2020-10-10,41,"",204,1,6,0,"","",0
Sul,PR,41,412170,41021,21ª RS TELEMACO BORBA,2020-10-11,42,"",204,0,6,0,"","",0
Sul,PR,41,412170,41021,21ª RS TELEMACO BORBA,2020-10-12,42,"",204,0,6,0,"","",0
Sul,PR,41,412170,41021,21ª RS TELEMACO BORBA,2020-10-13,42,"",204,0,6,0,"","",0
Sul,PR,41,412170,41021,21ª RS TELEMACO BORBA,2020-10-14,42,"",205,1,6,0,"","",0
Sul,PR,41,412170,41021,21ª RS TELEMACO BORBA,2020-10-15,42,"",205,0,6,0,"","",0
Sul,PR,41,412170,41021,21ª RS TELEMACO BORBA,2020-10-16,42,"",207,2,7,1,"","",0
Sul,PR,41,412170,41021,21ª RS TELEMACO BORBA,2020-10-17,42,"",208,1,7,0,"","",0
Sul,PR,41,412170,41021,21ª RS TELEMACO BORBA,2020-10-18,43,"",212,4,7,0,"","",0
Sul,PR,41,412170,41021,21ª RS TELEMACO BORBA,2020-10-19,43,"",213,1,7,0,"","",0
Sul,PR,41,412170,41021,21ª RS TELEMACO BORBA,2020-10-20,43,"",219,6,7,0,"","",0
Sul,PR,41,412170,41021,21ª RS TELEMACO BORBA,2020-10-21,43,"",221,2,7,0,"","",0
Sul,PR,41,412170,41021,21ª RS TELEMACO BORBA,2020-10-22,43,"",222,1,7,0,"","",0
Sul,PR,41,412170,41021,21ª RS TELEMACO BORBA,2020-10-23,43,"",230,8,7,0,"","",0
Sul,PR,41,412170,41021,21ª RS TELEMACO BORBA,2020-10-24,43,"",236,6,7,0,"","",0
Sul,PR,41,412170,41021,21ª RS TELEMACO BORBA,2020-10-25,44,"",242,6,7,0,"","",0
Sul,PR,41,412170,41021,21ª RS TELEMACO BORBA,2020-10-26,44,"",252,10,7,0,"","",0
Sul,PR,41,412170,41021,21ª RS TELEMACO BORBA,2020-10-27,44,"",254,2,7,0,"","",0
Sul,PR,41,412170,41021,21ª RS TELEMACO BORBA,2020-10-28,44,"",262,8,7,0,"","",0
Sul,PR,41,412170,41021,21ª RS TELEMACO BORBA,2020-10-29,44,"",263,1,7,0,"","",0
Sul,PR,41,412170,41021,21ª RS TELEMACO BORBA,2020-10-30,44,"",263,0,7,0,"","",0
Sul,PR,41,412170,41021,21ª RS TELEMACO BORBA,2020-10-31,44,"",271,8,7,0,"","",0
Sul,PR,41,412170,41021,21ª RS TELEMACO BORBA,2020-11-01,45,"",271,0,7,0,"","",0
Sul,PR,41,412170,41021,21ª RS TELEMACO BORBA,2020-11-02,45,"",271,0,7,0,"","",0
Sul,PR,41,412170,41021,21ª RS TELEMACO BORBA,2020-11-03,45,"",272,1,7,0,"","",0
Sul,PR,41,412170,41021,21ª RS TELEMACO BORBA,2020-11-04,45,"",281,9,7,0,"","",0
Sul,PR,41,412170,41021,21ª RS TELEMACO BORBA,2020-11-05,45,"",283,2,7,0,"","",0
Sul,PR,41,412170,41021,21ª RS TELEMACO BORBA,2020-11-06,45,"",283,0,7,0,"","",0
Sul,PR,41,412170,41021,21ª RS TELEMACO BORBA,2020-11-07,45,"",283,0,7,0,"","",0
Sul,PR,41,412170,41021,21ª RS TELEMACO BORBA,2020-11-08,46,"",285,2,7,0,"","",0
Sul,PR,41,412170,41021,21ª RS TELEMACO BORBA,2020-11-09,46,"",285,0,7,0,"","",0
Sul,PR,41,412170,41021,21ª RS TELEMACO BORBA,2020-11-10,46,"",289,4,9,2,"","",0
Sul,PR,41,412170,41021,21ª RS TELEMACO BORBA,2020-11-11,46,"",293,4,9,0,"","",0
Sul,PR,41,412170,41021,21ª RS TELEMACO BORBA,2020-11-12,46,"",295,2,9,0,"","",0
Sul,PR,41,412170,41021,21ª RS TELEMACO BORBA,2020-11-13,46,"",295,0,9,0,"","",0
Sul,PR,41,412170,41021,21ª RS TELEMACO BORBA,2020-11-14,46,"",320,25,9,0,"","",0
Sul,PR,41,412170,41021,21ª RS TELEMACO BORBA,2020-11-15,47,"",320,0,9,0,"","",0
Sul,PR,41,412170,41021,21ª RS TELEMACO BORBA,2020-11-16,47,"",320,0,9,0,"","",0
Sul,PR,41,412170,41021,21ª RS TELEMACO BORBA,2020-11-17,47,"",333,13,9,0,"","",0
Sul,PR,41,412170,41021,21ª RS TELEMACO BORBA,2020-11-18,47,"",336,3,9,0,"","",0
Sul,PR,41,412170,41021,21ª RS TELEMACO BORBA,2020-11-19,47,"",336,0,9,0,"","",0
Sul,PR,41,412170,41021,21ª RS TELEMACO BORBA,2020-11-20,47,"",336,0,9,0,"","",0
Sul,PR,41,412170,41021,21ª RS TELEMACO BORBA,2020-11-21,47,"",342,6,9,0,"","",0
Sul,PR,41,412170,41021,21ª RS TELEMACO BORBA,2020-11-22,48,"",343,1,9,0,"","",0
Sul,PR,41,412170,41021,21ª RS TELEMACO BORBA,2020-11-23,48,"",345,2,9,0,"","",0
Sul,PR,41,412170,41021,21ª RS TELEMACO BORBA,2020-11-24,48,"",345,0,9,0,"","",0
Sul,PR,41,412170,41021,21ª RS TELEMACO BORBA,2020-11-25,48,"",345,0,9,0,"","",0
Sul,PR,41,412170,41021,21ª RS TELEMACO BORBA,2020-11-26,48,"",346,1,9,0,"","",0
Sul,PR,41,412170,41021,21ª RS TELEMACO BORBA,2020-11-27,48,"",346,0,9,0,"","",0
Sul,PR,41,412170,41021,21ª RS TELEMACO BORBA,2020-11-28,48,"",346,0,9,0,"","",0
Sul,PR,41,412170,41021,21ª RS TELEMACO BORBA,2020-11-29,49,"",346,0,9,0,"","",0
Sul,PR,41,412170,41021,21ª RS TELEMACO BORBA,2020-11-30,49,"",346,0,9,0,"","",0
Sul,PR,41,412170,41021,21ª RS TELEMACO BORBA,2020-12-01,49,"",348,2,9,0,"","",0
Sul,PR,41,412170,41021,21ª RS TELEMACO BORBA,2020-12-02,49,"",349,1,9,0,"","",0
Sul,PR,41,412170,41021,21ª RS TELEMACO BORBA,2020-12-03,49,"",352,3,9,0,"","",0
Sul,PR,41,412170,41021,21ª RS TELEMACO BORBA,2020-12-04,49,"",352,0,9,0,"","",0
Sul,PR,41,412170,41021,21ª RS TELEMACO BORBA,2020-12-05,49,"",352,0,9,0,"","",0
Sul,PR,41,412170,41021,21ª RS TELEMACO BORBA,2020-12-06,50,"",352,0,9,0,"","",0
Sul,PR,41,412170,41021,21ª RS TELEMACO BORBA,2020-12-07,50,"",353,1,9,0,"","",0
Sul,PR,41,412170,41021,21ª RS TELEMACO BORBA,2020-12-08,50,"",353,0,9,0,"","",0
Sul,PR,41,412170,41021,21ª RS TELEMACO BORBA,2020-12-09,50,"",353,0,9,0,"","",0
Sul,PR,41,412170,41021,21ª RS TELEMACO BORBA,2020-12-10,50,"",354,1,9,0,"","",0
Sul,PR,41,412170,41021,21ª RS TELEMACO BORBA,2020-12-11,50,"",356,2,9,0,"","",0
Sul,PR,41,412170,41021,21ª RS TELEMACO BORBA,2020-12-12,50,"",356,0,9,0,"","",0
Sul,PR,41,412170,41021,21ª RS TELEMACO BORBA,2020-12-13,51,"",361,5,9,0,"","",0
Sul,PR,41,412170,41021,21ª RS TELEMACO BORBA,2020-12-14,51,"",362,1,9,0,"","",0
Sul,PR,41,412170,41021,21ª RS TELEMACO BORBA,2020-12-15,51,"",367,5,9,0,"","",0
Sul,PR,41,412170,41021,21ª RS TELEMACO BORBA,2020-12-16,51,"",368,1,9,0,"","",0
Sul,PR,41,412170,41021,21ª RS TELEMACO BORBA,2020-12-17,51,"",372,4,9,0,"","",0
Sul,PR,41,412170,41021,21ª RS TELEMACO BORBA,2020-12-18,51,"",374,2,9,0,"","",0
Sul,PR,41,412170,41021,21ª RS TELEMACO BORBA,2020-12-19,51,"",376,2,9,0,"","",0
Sul,PR,41,412170,41021,21ª RS TELEMACO BORBA,2020-12-20,52,"",377,1,9,0,"","",0
Sul,PR,41,412170,41021,21ª RS TELEMACO BORBA,2020-12-21,52,"",383,6,9,0,"","",0
Sul,PR,41,412170,41021,21ª RS TELEMACO BORBA,2020-12-22,52,"",383,0,9,0,"","",0
Sul,PR,41,412170,41021,21ª RS TELEMACO BORBA,2020-12-23,52,"",384,1,9,0,"","",0
Sul,PR,41,412170,41021,21ª RS TELEMACO BORBA,2020-12-24,52,"",387,3,9,0,"","",0
Sul,PR,41,412170,41021,21ª RS TELEMACO BORBA,2020-12-25,52,"",387,0,9,0,"","",0
Sul,PR,41,412170,41021,21ª RS TELEMACO BORBA,2020-12-26,52,"",387,0,9,0,"","",0
Sul,PR,41,412170,41021,21ª RS TELEMACO BORBA,2020-12-27,53,"",387,0,9,0,"","",0
Sul,PR,41,412170,41021,21ª RS TELEMACO BORBA,2020-12-28,53,"",391,4,9,0,"","",0
Sul,PR,41,412170,41021,21ª RS TELEMACO BORBA,2020-12-29,53,"",396,5,9,0,"","",0
Sul,PR,41,412170,41021,21ª RS TELEMACO BORBA,2020-12-30,53,"",401,5,9,0,"","",0
Sul,PR,41,412170,41021,21ª RS TELEMACO BORBA,2020-12-31,53,"",406,5,9,0,"","",0
