Sul,PR,41,412853,41021,21ª RS TELEMACO BORBA,2021-07-01,26,"",1066,9,36,0,"","",0
Sul,PR,41,412853,41021,21ª RS TELEMACO BORBA,2021-07-02,26,"",1070,4,36,0,"","",0
Sul,PR,41,412853,41021,21ª RS TELEMACO BORBA,2021-07-03,26,"",1072,2,36,0,"","",0
Sul,PR,41,412853,41021,21ª RS TELEMACO BORBA,2021-07-04,27,"",1073,1,36,0,"","",0
Sul,PR,41,412853,41021,21ª RS TELEMACO BORBA,2021-07-05,27,"",1074,1,36,0,"","",0
Sul,PR,41,412853,41021,21ª RS TELEMACO BORBA,2021-07-06,27,"",1074,0,36,0,"","",0
