Sul,PR,41,410700,41021,21ª RS TELEMACO BORBA,2020-08-01,31,"",114,3,6,0,"","",0
Sul,PR,41,410700,41021,21ª RS TELEMACO BORBA,2020-08-02,32,"",116,2,6,0,"","",0
Sul,PR,41,410700,41021,21ª RS TELEMACO BORBA,2020-08-03,32,"",116,0,6,0,"","",0
Sul,PR,41,410700,41021,21ª RS TELEMACO BORBA,2020-08-04,32,"",117,1,6,0,"","",0
Sul,PR,41,410700,41021,21ª RS TELEMACO BORBA,2020-08-05,32,"",122,5,6,0,"","",0
Sul,PR,41,410700,41021,21ª RS TELEMACO BORBA,2020-08-06,32,"",122,0,6,0,"","",0
Sul,PR,41,410700,41021,21ª RS TELEMACO BORBA,2020-08-07,32,"",122,0,6,0,"","",0
Sul,PR,41,410700,41021,21ª RS TELEMACO BORBA,2020-08-08,32,"",122,0,6,0,"","",0
Sul,PR,41,410700,41021,21ª RS TELEMACO BORBA,2020-08-09,33,"",122,0,6,0,"","",0
Sul,PR,41,410700,41021,21ª RS TELEMACO BORBA,2020-08-10,33,"",124,2,6,0,"","",0
Sul,PR,41,410700,41021,21ª RS TELEMACO BORBA,2020-08-11,33,"",124,0,6,0,"","",0
Sul,PR,41,410700,41021,21ª RS TELEMACO BORBA,2020-08-12,33,"",124,0,6,0,"","",0
Sul,PR,41,410700,41021,21ª RS TELEMACO BORBA,2020-08-13,33,"",124,0,6,0,"","",0
Sul,PR,41,410700,41021,21ª RS TELEMACO BORBA,2020-08-14,33,"",126,2,6,0,"","",0
Sul,PR,41,410700,41021,21ª RS TELEMACO BORBA,2020-08-15,33,"",128,2,6,0,"","",0
Sul,PR,41,410700,41021,21ª RS TELEMACO BORBA,2020-08-16,34,"",128,0,6,0,"","",0
Sul,PR,41,410700,41021,21ª RS TELEMACO BORBA,2020-08-17,34,"",128,0,6,0,"","",0
Sul,PR,41,410700,41021,21ª RS TELEMACO BORBA,2020-08-18,34,"",130,2,6,0,"","",0
Sul,PR,41,410700,41021,21ª RS TELEMACO BORBA,2020-08-19,34,"",131,1,6,0,"","",0
Sul,PR,41,410700,41021,21ª RS TELEMACO BORBA,2020-08-20,34,"",131,0,6,0,"","",0
Sul,PR,41,410700,41021,21ª RS TELEMACO BORBA,2020-08-21,34,"",132,1,6,0,"","",0
Sul,PR,41,410700,41021,21ª RS TELEMACO BORBA,2020-08-22,34,"",132,0,6,0,"","",0
Sul,PR,41,410700,41021,21ª RS TELEMACO BORBA,2020-08-23,35,"",132,0,6,0,"","",0
Sul,PR,41,410700,41021,21ª RS TELEMACO BORBA,2020-08-24,35,"",132,0,6,0,"","",0
Sul,PR,41,410700,41021,21ª RS TELEMACO BORBA,2020-08-25,35,"",132,0,6,0,"","",0
Sul,PR,41,410700,41021,21ª RS TELEMACO BORBA,2020-08-26,35,"",132,0,6,0,"","",0
Sul,PR,41,410700,41021,21ª RS TELEMACO BORBA,2020-08-27,35,"",138,6,6,0,"","",0
Sul,PR,41,410700,41021,21ª RS TELEMACO BORBA,2020-08-28,35,"",141,3,6,0,"","",0
Sul,PR,41,410700,41021,21ª RS TELEMACO BORBA,2020-08-29,35,"",141,0,6,0,"","",0
Sul,PR,41,410700,41021,21ª RS TELEMACO BORBA,2020-08-30,36,"",141,0,6,0,"","",0
Sul,PR,41,410700,41021,21ª RS TELEMACO BORBA,2020-08-31,36,"",143,2,6,0,"","",0
Sul,PR,41,410700,41021,21ª RS TELEMACO BORBA,2020-09-01,36,"",144,1,6,0,"","",0
Sul,PR,41,410700,41021,21ª RS TELEMACO BORBA,2020-09-02,36,"",146,2,6,0,"","",0
Sul,PR,41,410700,41021,21ª RS TELEMACO BORBA,2020-09-03,36,"",148,2,6,0,"","",0
Sul,PR,41,410700,41021,21ª RS TELEMACO BORBA,2020-09-04,36,"",152,4,6,0,"","",0
Sul,PR,41,410700,41021,21ª RS TELEMACO BORBA,2020-09-05,36,"",152,0,6,0,"","",0
Sul,PR,41,410700,41021,21ª RS TELEMACO BORBA,2020-09-06,37,"",153,1,6,0,"","",0
Sul,PR,41,410700,41021,21ª RS TELEMACO BORBA,2020-09-07,37,"",153,0,6,0,"","",0
Sul,PR,41,410700,41021,21ª RS TELEMACO BORBA,2020-09-08,37,"",155,2,6,0,"","",0
Sul,PR,41,410700,41021,21ª RS TELEMACO BORBA,2020-09-09,37,"",155,0,6,0,"","",0
Sul,PR,41,410700,41021,21ª RS TELEMACO BORBA,2020-09-10,37,"",156,1,7,1,"","",0
Sul,PR,41,410700,41021,21ª RS TELEMACO BORBA,2020-09-11,37,"",159,3,7,0,"","",0
Sul,PR,41,410700,41021,21ª RS TELEMACO BORBA,2020-09-12,37,"",161,2,7,0,"","",0
Sul,PR,41,410700,41021,21ª RS TELEMACO BORBA,2020-09-13,38,"",161,0,7,0,"","",0
Sul,PR,41,410700,41021,21ª RS TELEMACO BORBA,2020-09-14,38,"",163,2,7,0,"","",0
Sul,PR,41,410700,41021,21ª RS TELEMACO BORBA,2020-09-15,38,"",163,0,7,0,"","",0
Sul,PR,41,410700,41021,21ª RS TELEMACO BORBA,2020-09-16,38,"",163,0,7,0,"","",0
Sul,PR,41,410700,41021,21ª RS TELEMACO BORBA,2020-09-17,38,"",163,0,7,0,"","",0
Sul,PR,41,410700,41021,21ª RS TELEMACO BORBA,2020-09-18,38,"",164,1,7,0,"","",0
Sul,PR,41,410700,41021,21ª RS TELEMACO BORBA,2020-09-19,38,"",165,1,7,0,"","",0
Sul,PR,41,410700,41021,21ª RS TELEMACO BORBA,2020-09-20,39,"",165,0,7,0,"","",0
Sul,PR,41,410700,41021,21ª RS TELEMACO BORBA,2020-09-21,39,"",166,1,7,0,"","",0
Sul,PR,41,410700,41021,21ª RS TELEMACO BORBA,2020-09-22,39,"",166,0,7,0,"","",0
Sul,PR,41,410700,41021,21ª RS TELEMACO BORBA,2020-09-23,39,"",166,0,7,0,"","",0
Sul,PR,41,410700,41021,21ª RS TELEMACO BORBA,2020-09-24,39,"",166,0,7,0,"","",0
Sul,PR,41,410700,41021,21ª RS TELEMACO BORBA,2020-09-25,39,"",166,0,7,0,"","",0
Sul,PR,41,410700,41021,21ª RS TELEMACO BORBA,2020-09-26,39,"",166,0,7,0,"","",0
Sul,PR,41,410700,41021,21ª RS TELEMACO BORBA,2020-09-27,40,"",166,0,7,0,"","",0
Sul,PR,41,410700,41021,21ª RS TELEMACO BORBA,2020-09-28,40,"",166,0,7,0,"","",0
Sul,PR,41,410700,41021,21ª RS TELEMACO BORBA,2020-09-29,40,"",166,0,7,0,"","",0
Sul,PR,41,410700,41021,21ª RS TELEMACO BORBA,2020-09-30,40,"",166,0,7,0,"","",0
Sul,PR,41,410700,41021,21ª RS TELEMACO BORBA,2020-10-01,40,"",166,0,7,0,"","",0
Sul,PR,41,410700,41021,21ª RS TELEMACO BORBA,2020-10-02,40,"",166,0,7,0,"","",0
Sul,PR,41,410700,41021,21ª RS TELEMACO BORBA,2020-10-03,40,"",166,0,7,0,"","",0
Sul,PR,41,410700,41021,21ª RS TELEMACO BORBA,2020-10-04,41,"",166,0,7,0,"","",0
Sul,PR,41,410700,41021,21ª RS TELEMACO BORBA,2020-10-05,41,"",167,1,7,0,"","",0
Sul,PR,41,410700,41021,21ª RS TELEMACO BORBA,2020-10-06,41,"",167,0,7,0,"","",0
Sul,PR,41,410700,41021,21ª RS TELEMACO BORBA,2020-10-07,41,"",167,0,7,0,"","",0
Sul,PR,41,410700,41021,21ª RS TELEMACO BORBA,2020-10-08,41,"",167,0,7,0,"","",0
Sul,PR,41,410700,41021,21ª RS TELEMACO BORBA,2020-10-09,41,"",167,0,7,0,"","",0
Sul,PR,41,410700,41021,21ª RS TELEMACO BORBA,2020-10-10,41,"",167,0,7,0,"","",0
Sul,PR,41,410700,41021,21ª RS TELEMACO BORBA,2020-10-11,42,"",169,2,7,0,"","",0
Sul,PR,41,410700,41021,21ª RS TELEMACO BORBA,2020-10-12,42,"",170,1,7,0,"","",0
Sul,PR,41,410700,41021,21ª RS TELEMACO BORBA,2020-10-13,42,"",170,0,7,0,"","",0
Sul,PR,41,410700,41021,21ª RS TELEMACO BORBA,2020-10-14,42,"",170,0,7,0,"","",0
Sul,PR,41,410700,41021,21ª RS TELEMACO BORBA,2020-10-15,42,"",171,1,7,0,"","",0
Sul,PR,41,410700,41021,21ª RS TELEMACO BORBA,2020-10-16,42,"",172,1,7,0,"","",0
Sul,PR,41,410700,41021,21ª RS TELEMACO BORBA,2020-10-17,42,"",172,0,7,0,"","",0
Sul,PR,41,410700,41021,21ª RS TELEMACO BORBA,2020-10-18,43,"",172,0,7,0,"","",0
Sul,PR,41,410700,41021,21ª RS TELEMACO BORBA,2020-10-19,43,"",173,1,8,1,"","",0
Sul,PR,41,410700,41021,21ª RS TELEMACO BORBA,2020-10-20,43,"",179,6,8,0,"","",0
Sul,PR,41,410700,41021,21ª RS TELEMACO BORBA,2020-10-21,43,"",180,1,8,0,"","",0
Sul,PR,41,410700,41021,21ª RS TELEMACO BORBA,2020-10-22,43,"",182,2,8,0,"","",0
Sul,PR,41,410700,41021,21ª RS TELEMACO BORBA,2020-10-23,43,"",184,2,8,0,"","",0
Sul,PR,41,410700,41021,21ª RS TELEMACO BORBA,2020-10-24,43,"",185,1,8,0,"","",0
Sul,PR,41,410700,41021,21ª RS TELEMACO BORBA,2020-10-25,44,"",185,0,8,0,"","",0
Sul,PR,41,410700,41021,21ª RS TELEMACO BORBA,2020-10-26,44,"",185,0,8,0,"","",0
Sul,PR,41,410700,41021,21ª RS TELEMACO BORBA,2020-10-27,44,"",186,1,8,0,"","",0
Sul,PR,41,410700,41021,21ª RS TELEMACO BORBA,2020-10-28,44,"",186,0,8,0,"","",0
Sul,PR,41,410700,41021,21ª RS TELEMACO BORBA,2020-10-29,44,"",186,0,8,0,"","",0
Sul,PR,41,410700,41021,21ª RS TELEMACO BORBA,2020-10-30,44,"",187,1,8,0,"","",0
Sul,PR,41,410700,41021,21ª RS TELEMACO BORBA,2020-10-31,44,"",187,0,8,0,"","",0
Sul,PR,41,410700,41021,21ª RS TELEMACO BORBA,2020-11-01,45,"",187,0,8,0,"","",0
Sul,PR,41,410700,41021,21ª RS TELEMACO BORBA,2020-11-02,45,"",187,0,8,0,"","",0
Sul,PR,41,410700,41021,21ª RS TELEMACO BORBA,2020-11-03,45,"",187,0,8,0,"","",0
Sul,PR,41,410700,41021,21ª RS TELEMACO BORBA,2020-11-04,45,"",187,0,8,0,"","",0
Sul,PR,41,410700,41021,21ª RS TELEMACO BORBA,2020-11-05,45,"",187,0,8,0,"","",0
Sul,PR,41,410700,41021,21ª RS TELEMACO BORBA,2020-11-06,45,"",187,0,8,0,"","",0
Sul,PR,41,410700,41021,21ª RS TELEMACO BORBA,2020-11-07,45,"",187,0,8,0,"","",0
Sul,PR,41,410700,41021,21ª RS TELEMACO BORBA,2020-11-08,46,"",187,0,8,0,"","",0
Sul,PR,41,410700,41021,21ª RS TELEMACO BORBA,2020-11-09,46,"",187,0,8,0,"","",0
Sul,PR,41,410700,41021,21ª RS TELEMACO BORBA,2020-11-10,46,"",187,0,8,0,"","",0
Sul,PR,41,410700,41021,21ª RS TELEMACO BORBA,2020-11-11,46,"",187,0,8,0,"","",0
Sul,PR,41,410700,41021,21ª RS TELEMACO BORBA,2020-11-12,46,"",190,3,8,0,"","",0
Sul,PR,41,410700,41021,21ª RS TELEMACO BORBA,2020-11-13,46,"",190,0,8,0,"","",0
Sul,PR,41,410700,41021,21ª RS TELEMACO BORBA,2020-11-14,46,"",197,7,8,0,"","",0
Sul,PR,41,410700,41021,21ª RS TELEMACO BORBA,2020-11-15,47,"",197,0,8,0,"","",0
Sul,PR,41,410700,41021,21ª RS TELEMACO BORBA,2020-11-16,47,"",197,0,8,0,"","",0
Sul,PR,41,410700,41021,21ª RS TELEMACO BORBA,2020-11-17,47,"",197,0,8,0,"","",0
Sul,PR,41,410700,41021,21ª RS TELEMACO BORBA,2020-11-18,47,"",197,0,8,0,"","",0
Sul,PR,41,410700,41021,21ª RS TELEMACO BORBA,2020-11-19,47,"",198,1,8,0,"","",0
Sul,PR,41,410700,41021,21ª RS TELEMACO BORBA,2020-11-20,47,"",198,0,8,0,"","",0
Sul,PR,41,410700,41021,21ª RS TELEMACO BORBA,2020-11-21,47,"",200,2,8,0,"","",0
Sul,PR,41,410700,41021,21ª RS TELEMACO BORBA,2020-11-22,48,"",200,0,8,0,"","",0
Sul,PR,41,410700,41021,21ª RS TELEMACO BORBA,2020-11-23,48,"",200,0,8,0,"","",0
Sul,PR,41,410700,41021,21ª RS TELEMACO BORBA,2020-11-24,48,"",202,2,8,0,"","",0
Sul,PR,41,410700,41021,21ª RS TELEMACO BORBA,2020-11-25,48,"",203,1,8,0,"","",0
Sul,PR,41,410700,41021,21ª RS TELEMACO BORBA,2020-11-26,48,"",205,2,8,0,"","",0
Sul,PR,41,410700,41021,21ª RS TELEMACO BORBA,2020-11-27,48,"",206,1,8,0,"","",0
Sul,PR,41,410700,41021,21ª RS TELEMACO BORBA,2020-11-28,48,"",206,0,8,0,"","",0
Sul,PR,41,410700,41021,21ª RS TELEMACO BORBA,2020-11-29,49,"",209,3,8,0,"","",0
Sul,PR,41,410700,41021,21ª RS TELEMACO BORBA,2020-11-30,49,"",209,0,8,0,"","",0
Sul,PR,41,410700,41021,21ª RS TELEMACO BORBA,2020-12-01,49,"",217,8,8,0,"","",0
Sul,PR,41,410700,41021,21ª RS TELEMACO BORBA,2020-12-02,49,"",217,0,8,0,"","",0
Sul,PR,41,410700,41021,21ª RS TELEMACO BORBA,2020-12-03,49,"",218,1,8,0,"","",0
Sul,PR,41,410700,41021,21ª RS TELEMACO BORBA,2020-12-04,49,"",220,2,8,0,"","",0
Sul,PR,41,410700,41021,21ª RS TELEMACO BORBA,2020-12-05,49,"",228,8,8,0,"","",0
Sul,PR,41,410700,41021,21ª RS TELEMACO BORBA,2020-12-06,50,"",228,0,8,0,"","",0
Sul,PR,41,410700,41021,21ª RS TELEMACO BORBA,2020-12-07,50,"",228,0,8,0,"","",0
Sul,PR,41,410700,41021,21ª RS TELEMACO BORBA,2020-12-08,50,"",231,3,8,0,"","",0
Sul,PR,41,410700,41021,21ª RS TELEMACO BORBA,2020-12-09,50,"",232,1,8,0,"","",0
Sul,PR,41,410700,41021,21ª RS TELEMACO BORBA,2020-12-10,50,"",236,4,8,0,"","",0
Sul,PR,41,410700,41021,21ª RS TELEMACO BORBA,2020-12-11,50,"",247,11,8,0,"","",0
Sul,PR,41,410700,41021,21ª RS TELEMACO BORBA,2020-12-12,50,"",254,7,8,0,"","",0
Sul,PR,41,410700,41021,21ª RS TELEMACO BORBA,2020-12-13,51,"",258,4,8,0,"","",0
Sul,PR,41,410700,41021,21ª RS TELEMACO BORBA,2020-12-14,51,"",259,1,8,0,"","",0
Sul,PR,41,410700,41021,21ª RS TELEMACO BORBA,2020-12-15,51,"",261,2,8,0,"","",0
Sul,PR,41,410700,41021,21ª RS TELEMACO BORBA,2020-12-16,51,"",265,4,8,0,"","",0
Sul,PR,41,410700,41021,21ª RS TELEMACO BORBA,2020-12-17,51,"",268,3,8,0,"","",0
Sul,PR,41,410700,41021,21ª RS TELEMACO BORBA,2020-12-18,51,"",274,6,8,0,"","",0
Sul,PR,41,410700,41021,21ª RS TELEMACO BORBA,2020-12-19,51,"",276,2,8,0,"","",0
Sul,PR,41,410700,41021,21ª RS TELEMACO BORBA,2020-12-20,52,"",276,0,8,0,"","",0
Sul,PR,41,410700,41021,21ª RS TELEMACO BORBA,2020-12-21,52,"",279,3,8,0,"","",0
Sul,PR,41,410700,41021,21ª RS TELEMACO BORBA,2020-12-22,52,"",286,7,8,0,"","",0
Sul,PR,41,410700,41021,21ª RS TELEMACO BORBA,2020-12-23,52,"",288,2,8,0,"","",0
Sul,PR,41,410700,41021,21ª RS TELEMACO BORBA,2020-12-24,52,"",291,3,8,0,"","",0
Sul,PR,41,410700,41021,21ª RS TELEMACO BORBA,2020-12-25,52,"",292,1,8,0,"","",0
Sul,PR,41,410700,41021,21ª RS TELEMACO BORBA,2020-12-26,52,"",293,1,8,0,"","",0
Sul,PR,41,410700,41021,21ª RS TELEMACO BORBA,2020-12-27,53,"",293,0,8,0,"","",0
Sul,PR,41,410700,41021,21ª RS TELEMACO BORBA,2020-12-28,53,"",296,3,8,0,"","",0
Sul,PR,41,410700,41021,21ª RS TELEMACO BORBA,2020-12-29,53,"",300,4,8,0,"","",0
Sul,PR,41,410700,41021,21ª RS TELEMACO BORBA,2020-12-30,53,"",306,6,8,0,"","",0
Sul,PR,41,410700,41021,21ª RS TELEMACO BORBA,2020-12-31,53,"",307,1,8,0,"","",0
