Sul,PR,41,410700,41021,21ª RS TELEMACO BORBA,2021-01-01,53,"",308,1,8,0,"","",0
Sul,PR,41,410700,41021,21ª RS TELEMACO BORBA,2021-01-02,53,"",308,0,8,0,"","",0
Sul,PR,41,410700,41021,21ª RS TELEMACO BORBA,2021-01-03,1,"",308,0,8,0,"","",0
Sul,PR,41,410700,41021,21ª RS TELEMACO BORBA,2021-01-04,1,"",310,2,8,0,"","",0
Sul,PR,41,410700,41021,21ª RS TELEMACO BORBA,2021-01-05,1,"",318,8,8,0,"","",0
Sul,PR,41,410700,41021,21ª RS TELEMACO BORBA,2021-01-06,1,"",319,1,8,0,"","",0
Sul,PR,41,410700,41021,21ª RS TELEMACO BORBA,2021-01-07,1,"",336,17,8,0,"","",0
Sul,PR,41,410700,41021,21ª RS TELEMACO BORBA,2021-01-08,1,"",336,0,8,0,"","",0
Sul,PR,41,410700,41021,21ª RS TELEMACO BORBA,2021-01-09,1,"",342,6,8,0,"","",0
Sul,PR,41,410700,41021,21ª RS TELEMACO BORBA,2021-01-10,2,"",347,5,8,0,"","",0
Sul,PR,41,410700,41021,21ª RS TELEMACO BORBA,2021-01-11,2,"",350,3,8,0,"","",0
Sul,PR,41,410700,41021,21ª RS TELEMACO BORBA,2021-01-12,2,"",363,13,8,0,"","",0
Sul,PR,41,410700,41021,21ª RS TELEMACO BORBA,2021-01-13,2,"",363,0,8,0,"","",0
Sul,PR,41,410700,41021,21ª RS TELEMACO BORBA,2021-01-14,2,"",377,14,8,0,"","",0
Sul,PR,41,410700,41021,21ª RS TELEMACO BORBA,2021-01-15,2,"",381,4,8,0,"","",0
Sul,PR,41,410700,41021,21ª RS TELEMACO BORBA,2021-01-16,2,"",382,1,8,0,"","",0
Sul,PR,41,410700,41021,21ª RS TELEMACO BORBA,2021-01-17,3,"",383,1,8,0,"","",0
Sul,PR,41,410700,41021,21ª RS TELEMACO BORBA,2021-01-18,3,"",383,0,8,0,"","",0
Sul,PR,41,410700,41021,21ª RS TELEMACO BORBA,2021-01-19,3,"",395,12,8,0,"","",0
Sul,PR,41,410700,41021,21ª RS TELEMACO BORBA,2021-01-20,3,"",396,1,8,0,"","",0
Sul,PR,41,410700,41021,21ª RS TELEMACO BORBA,2021-01-21,3,"",399,3,8,0,"","",0
Sul,PR,41,410700,41021,21ª RS TELEMACO BORBA,2021-01-22,3,"",403,4,8,0,"","",0
Sul,PR,41,410700,41021,21ª RS TELEMACO BORBA,2021-01-23,3,"",403,0,8,0,"","",0
Sul,PR,41,410700,41021,21ª RS TELEMACO BORBA,2021-01-24,4,"",403,0,8,0,"","",0
Sul,PR,41,410700,41021,21ª RS TELEMACO BORBA,2021-01-25,4,"",408,5,9,1,"","",0
Sul,PR,41,410700,41021,21ª RS TELEMACO BORBA,2021-01-26,4,"",436,28,9,0,"","",0
Sul,PR,41,410700,41021,21ª RS TELEMACO BORBA,2021-01-27,4,"",440,4,9,0,"","",0
Sul,PR,41,410700,41021,21ª RS TELEMACO BORBA,2021-01-28,4,"",458,18,9,0,"","",0
Sul,PR,41,410700,41021,21ª RS TELEMACO BORBA,2021-01-29,4,"",462,4,9,0,"","",0
Sul,PR,41,410700,41021,21ª RS TELEMACO BORBA,2021-01-30,4,"",472,10,9,0,"","",0
Sul,PR,41,410700,41021,21ª RS TELEMACO BORBA,2021-01-31,5,"",472,0,9,0,"","",0
Sul,PR,41,410700,41021,21ª RS TELEMACO BORBA,2021-02-01,5,"",485,13,9,0,"","",0
Sul,PR,41,410700,41021,21ª RS TELEMACO BORBA,2021-02-02,5,"",489,4,9,0,"","",0
Sul,PR,41,410700,41021,21ª RS TELEMACO BORBA,2021-02-03,5,"",491,2,9,0,"","",0
Sul,PR,41,410700,41021,21ª RS TELEMACO BORBA,2021-02-04,5,"",494,3,9,0,"","",0
Sul,PR,41,410700,41021,21ª RS TELEMACO BORBA,2021-02-05,5,"",501,7,9,0,"","",0
Sul,PR,41,410700,41021,21ª RS TELEMACO BORBA,2021-02-06,5,"",517,16,9,0,"","",0
Sul,PR,41,410700,41021,21ª RS TELEMACO BORBA,2021-02-07,6,"",519,2,9,0,"","",0
Sul,PR,41,410700,41021,21ª RS TELEMACO BORBA,2021-02-08,6,"",532,13,9,0,"","",0
Sul,PR,41,410700,41021,21ª RS TELEMACO BORBA,2021-02-09,6,"",547,15,9,0,"","",0
Sul,PR,41,410700,41021,21ª RS TELEMACO BORBA,2021-02-10,6,"",556,9,9,0,"","",0
Sul,PR,41,410700,41021,21ª RS TELEMACO BORBA,2021-02-11,6,"",562,6,9,0,"","",0
Sul,PR,41,410700,41021,21ª RS TELEMACO BORBA,2021-02-12,6,"",571,9,9,0,"","",0
Sul,PR,41,410700,41021,21ª RS TELEMACO BORBA,2021-02-13,6,"",594,23,9,0,"","",0
Sul,PR,41,410700,41021,21ª RS TELEMACO BORBA,2021-02-14,7,"",599,5,9,0,"","",0
Sul,PR,41,410700,41021,21ª RS TELEMACO BORBA,2021-02-15,7,"",603,4,9,0,"","",0
Sul,PR,41,410700,41021,21ª RS TELEMACO BORBA,2021-02-16,7,"",609,6,10,1,"","",0
Sul,PR,41,410700,41021,21ª RS TELEMACO BORBA,2021-02-17,7,"",615,6,10,0,"","",0
Sul,PR,41,410700,41021,21ª RS TELEMACO BORBA,2021-02-18,7,"",617,2,10,0,"","",0
Sul,PR,41,410700,41021,21ª RS TELEMACO BORBA,2021-02-19,7,"",621,4,10,0,"","",0
Sul,PR,41,410700,41021,21ª RS TELEMACO BORBA,2021-02-20,7,"",627,6,10,0,"","",0
Sul,PR,41,410700,41021,21ª RS TELEMACO BORBA,2021-02-21,8,"",631,4,10,0,"","",0
Sul,PR,41,410700,41021,21ª RS TELEMACO BORBA,2021-02-22,8,"",634,3,10,0,"","",0
Sul,PR,41,410700,41021,21ª RS TELEMACO BORBA,2021-02-23,8,"",646,12,10,0,"","",0
Sul,PR,41,410700,41021,21ª RS TELEMACO BORBA,2021-02-24,8,"",653,7,10,0,"","",0
Sul,PR,41,410700,41021,21ª RS TELEMACO BORBA,2021-02-25,8,"",654,1,11,1,"","",0
Sul,PR,41,410700,41021,21ª RS TELEMACO BORBA,2021-02-26,8,"",659,5,11,0,"","",0
Sul,PR,41,410700,41021,21ª RS TELEMACO BORBA,2021-02-27,8,"",668,9,11,0,"","",0
Sul,PR,41,410700,41021,21ª RS TELEMACO BORBA,2021-02-28,9,"",674,6,11,0,"","",0
Sul,PR,41,410700,41021,21ª RS TELEMACO BORBA,2021-03-01,9,"",687,13,11,0,"","",0
Sul,PR,41,410700,41021,21ª RS TELEMACO BORBA,2021-03-02,9,"",692,5,11,0,"","",0
Sul,PR,41,410700,41021,21ª RS TELEMACO BORBA,2021-03-03,9,"",693,1,11,0,"","",0
Sul,PR,41,410700,41021,21ª RS TELEMACO BORBA,2021-03-04,9,"",695,2,11,0,"","",0
Sul,PR,41,410700,41021,21ª RS TELEMACO BORBA,2021-03-05,9,"",700,5,11,0,"","",0
Sul,PR,41,410700,41021,21ª RS TELEMACO BORBA,2021-03-06,9,"",709,9,11,0,"","",0
Sul,PR,41,410700,41021,21ª RS TELEMACO BORBA,2021-03-07,10,"",719,10,11,0,"","",0
Sul,PR,41,410700,41021,21ª RS TELEMACO BORBA,2021-03-08,10,"",729,10,11,0,"","",0
Sul,PR,41,410700,41021,21ª RS TELEMACO BORBA,2021-03-09,10,"",730,1,11,0,"","",0
Sul,PR,41,410700,41021,21ª RS TELEMACO BORBA,2021-03-10,10,"",731,1,11,0,"","",0
Sul,PR,41,410700,41021,21ª RS TELEMACO BORBA,2021-03-11,10,"",731,0,11,0,"","",0
Sul,PR,41,410700,41021,21ª RS TELEMACO BORBA,2021-03-12,10,"",732,1,11,0,"","",0
Sul,PR,41,410700,41021,21ª RS TELEMACO BORBA,2021-03-13,10,"",744,12,11,0,"","",0
Sul,PR,41,410700,41021,21ª RS TELEMACO BORBA,2021-03-14,11,"",746,2,11,0,"","",0
Sul,PR,41,410700,41021,21ª RS TELEMACO BORBA,2021-03-15,11,"",747,1,11,0,"","",0
Sul,PR,41,410700,41021,21ª RS TELEMACO BORBA,2021-03-16,11,"",749,2,11,0,"","",0
Sul,PR,41,410700,41021,21ª RS TELEMACO BORBA,2021-03-17,11,"",751,2,11,0,"","",0
Sul,PR,41,410700,41021,21ª RS TELEMACO BORBA,2021-03-18,11,"",754,3,12,1,"","",0
Sul,PR,41,410700,41021,21ª RS TELEMACO BORBA,2021-03-19,11,"",764,10,12,0,"","",0
Sul,PR,41,410700,41021,21ª RS TELEMACO BORBA,2021-03-20,11,"",772,8,12,0,"","",0
Sul,PR,41,410700,41021,21ª RS TELEMACO BORBA,2021-03-21,12,"",773,1,12,0,"","",0
Sul,PR,41,410700,41021,21ª RS TELEMACO BORBA,2021-03-22,12,"",775,2,13,1,"","",0
Sul,PR,41,410700,41021,21ª RS TELEMACO BORBA,2021-03-23,12,"",785,10,13,0,"","",0
Sul,PR,41,410700,41021,21ª RS TELEMACO BORBA,2021-03-24,12,"",792,7,13,0,"","",0
Sul,PR,41,410700,41021,21ª RS TELEMACO BORBA,2021-03-25,12,"",804,12,13,0,"","",0
Sul,PR,41,410700,41021,21ª RS TELEMACO BORBA,2021-03-26,12,"",813,9,13,0,"","",0
Sul,PR,41,410700,41021,21ª RS TELEMACO BORBA,2021-03-27,12,"",819,6,14,1,"","",0
Sul,PR,41,410700,41021,21ª RS TELEMACO BORBA,2021-03-28,13,"",833,14,14,0,"","",0
Sul,PR,41,410700,41021,21ª RS TELEMACO BORBA,2021-03-29,13,"",853,20,14,0,"","",0
Sul,PR,41,410700,41021,21ª RS TELEMACO BORBA,2021-03-30,13,"",853,0,14,0,"","",0
Sul,PR,41,410700,41021,21ª RS TELEMACO BORBA,2021-03-31,13,"",855,2,14,0,"","",0
Sul,PR,41,410700,41021,21ª RS TELEMACO BORBA,2021-04-01,13,"",868,13,14,0,"","",0
Sul,PR,41,410700,41021,21ª RS TELEMACO BORBA,2021-04-02,13,"",880,12,14,0,"","",0
Sul,PR,41,410700,41021,21ª RS TELEMACO BORBA,2021-04-03,13,"",889,9,14,0,"","",0
Sul,PR,41,410700,41021,21ª RS TELEMACO BORBA,2021-04-04,14,"",889,0,14,0,"","",0
Sul,PR,41,410700,41021,21ª RS TELEMACO BORBA,2021-04-05,14,"",890,1,14,0,"","",0
Sul,PR,41,410700,41021,21ª RS TELEMACO BORBA,2021-04-06,14,"",894,4,14,0,"","",0
Sul,PR,41,410700,41021,21ª RS TELEMACO BORBA,2021-04-07,14,"",895,1,14,0,"","",0
Sul,PR,41,410700,41021,21ª RS TELEMACO BORBA,2021-04-08,14,"",903,8,14,0,"","",0
Sul,PR,41,410700,41021,21ª RS TELEMACO BORBA,2021-04-09,14,"",905,2,14,0,"","",0
Sul,PR,41,410700,41021,21ª RS TELEMACO BORBA,2021-04-10,14,"",909,4,14,0,"","",0
Sul,PR,41,410700,41021,21ª RS TELEMACO BORBA,2021-04-11,15,"",909,0,14,0,"","",0
Sul,PR,41,410700,41021,21ª RS TELEMACO BORBA,2021-04-12,15,"",910,1,14,0,"","",0
Sul,PR,41,410700,41021,21ª RS TELEMACO BORBA,2021-04-13,15,"",919,9,14,0,"","",0
Sul,PR,41,410700,41021,21ª RS TELEMACO BORBA,2021-04-14,15,"",920,1,14,0,"","",0
Sul,PR,41,410700,41021,21ª RS TELEMACO BORBA,2021-04-15,15,"",923,3,15,1,"","",0
Sul,PR,41,410700,41021,21ª RS TELEMACO BORBA,2021-04-16,15,"",928,5,15,0,"","",0
Sul,PR,41,410700,41021,21ª RS TELEMACO BORBA,2021-04-17,15,"",931,3,15,0,"","",0
Sul,PR,41,410700,41021,21ª RS TELEMACO BORBA,2021-04-18,16,"",932,1,15,0,"","",0
Sul,PR,41,410700,41021,21ª RS TELEMACO BORBA,2021-04-19,16,"",940,8,15,0,"","",0
Sul,PR,41,410700,41021,21ª RS TELEMACO BORBA,2021-04-20,16,"",943,3,15,0,"","",0
Sul,PR,41,410700,41021,21ª RS TELEMACO BORBA,2021-04-21,16,"",948,5,15,0,"","",0
Sul,PR,41,410700,41021,21ª RS TELEMACO BORBA,2021-04-22,16,"",952,4,15,0,"","",0
Sul,PR,41,410700,41021,21ª RS TELEMACO BORBA,2021-04-23,16,"",963,11,15,0,"","",0
Sul,PR,41,410700,41021,21ª RS TELEMACO BORBA,2021-04-24,16,"",971,8,15,0,"","",0
Sul,PR,41,410700,41021,21ª RS TELEMACO BORBA,2021-04-25,17,"",976,5,15,0,"","",0
Sul,PR,41,410700,41021,21ª RS TELEMACO BORBA,2021-04-26,17,"",980,4,15,0,"","",0
Sul,PR,41,410700,41021,21ª RS TELEMACO BORBA,2021-04-27,17,"",983,3,15,0,"","",0
Sul,PR,41,410700,41021,21ª RS TELEMACO BORBA,2021-04-28,17,"",988,5,15,0,"","",0
Sul,PR,41,410700,41021,21ª RS TELEMACO BORBA,2021-04-29,17,"",993,5,15,0,"","",0
Sul,PR,41,410700,41021,21ª RS TELEMACO BORBA,2021-04-30,17,"",996,3,15,0,"","",0
Sul,PR,41,410700,41021,21ª RS TELEMACO BORBA,2021-05-01,17,"",996,0,15,0,"","",0
Sul,PR,41,410700,41021,21ª RS TELEMACO BORBA,2021-05-02,18,"",997,1,15,0,"","",0
Sul,PR,41,410700,41021,21ª RS TELEMACO BORBA,2021-05-03,18,"",998,1,15,0,"","",0
Sul,PR,41,410700,41021,21ª RS TELEMACO BORBA,2021-05-04,18,"",1002,4,16,1,"","",0
Sul,PR,41,410700,41021,21ª RS TELEMACO BORBA,2021-05-05,18,"",1003,1,16,0,"","",0
Sul,PR,41,410700,41021,21ª RS TELEMACO BORBA,2021-05-06,18,"",1005,2,16,0,"","",0
Sul,PR,41,410700,41021,21ª RS TELEMACO BORBA,2021-05-07,18,"",1006,1,16,0,"","",0
Sul,PR,41,410700,41021,21ª RS TELEMACO BORBA,2021-05-08,18,"",1016,10,16,0,"","",0
Sul,PR,41,410700,41021,21ª RS TELEMACO BORBA,2021-05-09,19,"",1019,3,16,0,"","",0
Sul,PR,41,410700,41021,21ª RS TELEMACO BORBA,2021-05-10,19,"",1022,3,16,0,"","",0
Sul,PR,41,410700,41021,21ª RS TELEMACO BORBA,2021-05-11,19,"",1023,1,16,0,"","",0
Sul,PR,41,410700,41021,21ª RS TELEMACO BORBA,2021-05-12,19,"",1025,2,16,0,"","",0
Sul,PR,41,410700,41021,21ª RS TELEMACO BORBA,2021-05-13,19,"",1031,6,16,0,"","",0
Sul,PR,41,410700,41021,21ª RS TELEMACO BORBA,2021-05-14,19,"",1052,21,16,0,"","",0
Sul,PR,41,410700,41021,21ª RS TELEMACO BORBA,2021-05-15,19,"",1067,15,16,0,"","",0
Sul,PR,41,410700,41021,21ª RS TELEMACO BORBA,2021-05-16,20,"",1077,10,16,0,"","",0
Sul,PR,41,410700,41021,21ª RS TELEMACO BORBA,2021-05-17,20,"",1079,2,16,0,"","",0
Sul,PR,41,410700,41021,21ª RS TELEMACO BORBA,2021-05-18,20,"",1097,18,16,0,"","",0
Sul,PR,41,410700,41021,21ª RS TELEMACO BORBA,2021-05-19,20,"",1101,4,16,0,"","",0
Sul,PR,41,410700,41021,21ª RS TELEMACO BORBA,2021-05-20,20,"",1112,11,16,0,"","",0
Sul,PR,41,410700,41021,21ª RS TELEMACO BORBA,2021-05-21,20,"",1128,16,16,0,"","",0
Sul,PR,41,410700,41021,21ª RS TELEMACO BORBA,2021-05-22,20,"",1132,4,16,0,"","",0
Sul,PR,41,410700,41021,21ª RS TELEMACO BORBA,2021-05-23,21,"",1132,0,16,0,"","",0
Sul,PR,41,410700,41021,21ª RS TELEMACO BORBA,2021-05-24,21,"",1132,0,16,0,"","",0
Sul,PR,41,410700,41021,21ª RS TELEMACO BORBA,2021-05-25,21,"",1135,3,16,0,"","",0
Sul,PR,41,410700,41021,21ª RS TELEMACO BORBA,2021-05-26,21,"",1141,6,17,1,"","",0
Sul,PR,41,410700,41021,21ª RS TELEMACO BORBA,2021-05-27,21,"",1144,3,17,0,"","",0
Sul,PR,41,410700,41021,21ª RS TELEMACO BORBA,2021-05-28,21,"",1148,4,18,1,"","",0
Sul,PR,41,410700,41021,21ª RS TELEMACO BORBA,2021-05-29,21,"",1156,8,18,0,"","",0
Sul,PR,41,410700,41021,21ª RS TELEMACO BORBA,2021-05-30,22,"",1156,0,18,0,"","",0
Sul,PR,41,410700,41021,21ª RS TELEMACO BORBA,2021-05-31,22,"",1159,3,18,0,"","",0
Sul,PR,41,410700,41021,21ª RS TELEMACO BORBA,2021-06-01,22,"",1173,14,18,0,"","",0
Sul,PR,41,410700,41021,21ª RS TELEMACO BORBA,2021-06-02,22,"",1175,2,18,0,"","",0
Sul,PR,41,410700,41021,21ª RS TELEMACO BORBA,2021-06-03,22,"",1183,8,18,0,"","",0
Sul,PR,41,410700,41021,21ª RS TELEMACO BORBA,2021-06-04,22,"",1193,10,18,0,"","",0
Sul,PR,41,410700,41021,21ª RS TELEMACO BORBA,2021-06-05,22,"",1200,7,18,0,"","",0
Sul,PR,41,410700,41021,21ª RS TELEMACO BORBA,2021-06-06,23,"",1207,7,18,0,"","",0
Sul,PR,41,410700,41021,21ª RS TELEMACO BORBA,2021-06-07,23,"",1216,9,18,0,"","",0
Sul,PR,41,410700,41021,21ª RS TELEMACO BORBA,2021-06-08,23,"",1216,0,18,0,"","",0
Sul,PR,41,410700,41021,21ª RS TELEMACO BORBA,2021-06-09,23,"",1223,7,19,1,"","",0
Sul,PR,41,410700,41021,21ª RS TELEMACO BORBA,2021-06-10,23,"",1231,8,20,1,"","",0
Sul,PR,41,410700,41021,21ª RS TELEMACO BORBA,2021-06-11,23,"",1238,7,20,0,"","",0
Sul,PR,41,410700,41021,21ª RS TELEMACO BORBA,2021-06-12,23,"",1241,3,20,0,"","",0
Sul,PR,41,410700,41021,21ª RS TELEMACO BORBA,2021-06-13,24,"",1241,0,20,0,"","",0
Sul,PR,41,410700,41021,21ª RS TELEMACO BORBA,2021-06-14,24,"",1246,5,20,0,"","",0
Sul,PR,41,410700,41021,21ª RS TELEMACO BORBA,2021-06-15,24,"",1248,2,20,0,"","",0
Sul,PR,41,410700,41021,21ª RS TELEMACO BORBA,2021-06-16,24,"",1252,4,20,0,"","",0
Sul,PR,41,410700,41021,21ª RS TELEMACO BORBA,2021-06-17,24,"",1260,8,20,0,"","",0
Sul,PR,41,410700,41021,21ª RS TELEMACO BORBA,2021-06-18,24,"",1269,9,21,1,"","",0
Sul,PR,41,410700,41021,21ª RS TELEMACO BORBA,2021-06-19,24,"",1281,12,21,0,"","",0
Sul,PR,41,410700,41021,21ª RS TELEMACO BORBA,2021-06-20,25,"",1287,6,21,0,"","",0
Sul,PR,41,410700,41021,21ª RS TELEMACO BORBA,2021-06-21,25,"",1297,10,21,0,"","",0
Sul,PR,41,410700,41021,21ª RS TELEMACO BORBA,2021-06-22,25,"",1300,3,21,0,"","",0
Sul,PR,41,410700,41021,21ª RS TELEMACO BORBA,2021-06-23,25,"",1305,5,21,0,"","",0
Sul,PR,41,410700,41021,21ª RS TELEMACO BORBA,2021-06-24,25,"",1310,5,21,0,"","",0
Sul,PR,41,410700,41021,21ª RS TELEMACO BORBA,2021-06-25,25,"",1311,1,21,0,"","",0
Sul,PR,41,410700,41021,21ª RS TELEMACO BORBA,2021-06-26,25,"",1315,4,21,0,"","",0
Sul,PR,41,410700,41021,21ª RS TELEMACO BORBA,2021-06-27,26,"",1317,2,21,0,"","",0
Sul,PR,41,410700,41021,21ª RS TELEMACO BORBA,2021-06-28,26,"",1318,1,21,0,"","",0
Sul,PR,41,410700,41021,21ª RS TELEMACO BORBA,2021-06-29,26,"",1321,3,21,0,"","",0
Sul,PR,41,410700,41021,21ª RS TELEMACO BORBA,2021-06-30,26,"",1323,2,21,0,"","",0
