Sul,PR,41,412853,41021,21ª RS TELEMACO BORBA,2021-01-01,53,"",287,0,10,0,"","",0
Sul,PR,41,412853,41021,21ª RS TELEMACO BORBA,2021-01-02,53,"",293,6,10,0,"","",0
Sul,PR,41,412853,41021,21ª RS TELEMACO BORBA,2021-01-03,1,"",294,1,11,1,"","",0
Sul,PR,41,412853,41021,21ª RS TELEMACO BORBA,2021-01-04,1,"",295,1,11,0,"","",0
Sul,PR,41,412853,41021,21ª RS TELEMACO BORBA,2021-01-05,1,"",296,1,11,0,"","",0
Sul,PR,41,412853,41021,21ª RS TELEMACO BORBA,2021-01-06,1,"",296,0,11,0,"","",0
Sul,PR,41,412853,41021,21ª RS TELEMACO BORBA,2021-01-07,1,"",298,2,12,1,"","",0
Sul,PR,41,412853,41021,21ª RS TELEMACO BORBA,2021-01-08,1,"",298,0,12,0,"","",0
Sul,PR,41,412853,41021,21ª RS TELEMACO BORBA,2021-01-09,1,"",310,12,12,0,"","",0
Sul,PR,41,412853,41021,21ª RS TELEMACO BORBA,2021-01-10,2,"",311,1,12,0,"","",0
Sul,PR,41,412853,41021,21ª RS TELEMACO BORBA,2021-01-11,2,"",317,6,12,0,"","",0
Sul,PR,41,412853,41021,21ª RS TELEMACO BORBA,2021-01-12,2,"",322,5,12,0,"","",0
Sul,PR,41,412853,41021,21ª RS TELEMACO BORBA,2021-01-13,2,"",326,4,13,1,"","",0
Sul,PR,41,412853,41021,21ª RS TELEMACO BORBA,2021-01-14,2,"",326,0,13,0,"","",0
Sul,PR,41,412853,41021,21ª RS TELEMACO BORBA,2021-01-15,2,"",328,2,13,0,"","",0
Sul,PR,41,412853,41021,21ª RS TELEMACO BORBA,2021-01-16,2,"",332,4,13,0,"","",0
Sul,PR,41,412853,41021,21ª RS TELEMACO BORBA,2021-01-17,3,"",342,10,13,0,"","",0
Sul,PR,41,412853,41021,21ª RS TELEMACO BORBA,2021-01-18,3,"",342,0,13,0,"","",0
Sul,PR,41,412853,41021,21ª RS TELEMACO BORBA,2021-01-19,3,"",352,10,14,1,"","",0
Sul,PR,41,412853,41021,21ª RS TELEMACO BORBA,2021-01-20,3,"",352,0,14,0,"","",0
Sul,PR,41,412853,41021,21ª RS TELEMACO BORBA,2021-01-21,3,"",352,0,14,0,"","",0
Sul,PR,41,412853,41021,21ª RS TELEMACO BORBA,2021-01-22,3,"",357,5,14,0,"","",0
Sul,PR,41,412853,41021,21ª RS TELEMACO BORBA,2021-01-23,3,"",357,0,14,0,"","",0
Sul,PR,41,412853,41021,21ª RS TELEMACO BORBA,2021-01-24,4,"",357,0,14,0,"","",0
Sul,PR,41,412853,41021,21ª RS TELEMACO BORBA,2021-01-25,4,"",357,0,15,1,"","",0
Sul,PR,41,412853,41021,21ª RS TELEMACO BORBA,2021-01-26,4,"",365,8,15,0,"","",0
Sul,PR,41,412853,41021,21ª RS TELEMACO BORBA,2021-01-27,4,"",366,1,15,0,"","",0
Sul,PR,41,412853,41021,21ª RS TELEMACO BORBA,2021-01-28,4,"",366,0,16,1,"","",0
Sul,PR,41,412853,41021,21ª RS TELEMACO BORBA,2021-01-29,4,"",366,0,16,0,"","",0
Sul,PR,41,412853,41021,21ª RS TELEMACO BORBA,2021-01-30,4,"",366,0,16,0,"","",0
Sul,PR,41,412853,41021,21ª RS TELEMACO BORBA,2021-01-31,5,"",366,0,16,0,"","",0
Sul,PR,41,412853,41021,21ª RS TELEMACO BORBA,2021-02-01,5,"",367,1,16,0,"","",0
Sul,PR,41,412853,41021,21ª RS TELEMACO BORBA,2021-02-02,5,"",367,0,16,0,"","",0
Sul,PR,41,412853,41021,21ª RS TELEMACO BORBA,2021-02-03,5,"",368,1,16,0,"","",0
Sul,PR,41,412853,41021,21ª RS TELEMACO BORBA,2021-02-04,5,"",368,0,16,0,"","",0
Sul,PR,41,412853,41021,21ª RS TELEMACO BORBA,2021-02-05,5,"",374,6,16,0,"","",0
Sul,PR,41,412853,41021,21ª RS TELEMACO BORBA,2021-02-06,5,"",374,0,16,0,"","",0
Sul,PR,41,412853,41021,21ª RS TELEMACO BORBA,2021-02-07,6,"",374,0,16,0,"","",0
Sul,PR,41,412853,41021,21ª RS TELEMACO BORBA,2021-02-08,6,"",374,0,16,0,"","",0
Sul,PR,41,412853,41021,21ª RS TELEMACO BORBA,2021-02-09,6,"",377,3,16,0,"","",0
Sul,PR,41,412853,41021,21ª RS TELEMACO BORBA,2021-02-10,6,"",377,0,16,0,"","",0
Sul,PR,41,412853,41021,21ª RS TELEMACO BORBA,2021-02-11,6,"",381,4,16,0,"","",0
Sul,PR,41,412853,41021,21ª RS TELEMACO BORBA,2021-02-12,6,"",381,0,16,0,"","",0
Sul,PR,41,412853,41021,21ª RS TELEMACO BORBA,2021-02-13,6,"",381,0,16,0,"","",0
Sul,PR,41,412853,41021,21ª RS TELEMACO BORBA,2021-02-14,7,"",381,0,16,0,"","",0
Sul,PR,41,412853,41021,21ª RS TELEMACO BORBA,2021-02-15,7,"",382,1,16,0,"","",0
Sul,PR,41,412853,41021,21ª RS TELEMACO BORBA,2021-02-16,7,"",387,5,16,0,"","",0
Sul,PR,41,412853,41021,21ª RS TELEMACO BORBA,2021-02-17,7,"",390,3,16,0,"","",0
Sul,PR,41,412853,41021,21ª RS TELEMACO BORBA,2021-02-18,7,"",390,0,16,0,"","",0
Sul,PR,41,412853,41021,21ª RS TELEMACO BORBA,2021-02-19,7,"",391,1,17,1,"","",0
Sul,PR,41,412853,41021,21ª RS TELEMACO BORBA,2021-02-20,7,"",401,10,17,0,"","",0
Sul,PR,41,412853,41021,21ª RS TELEMACO BORBA,2021-02-21,8,"",401,0,17,0,"","",0
Sul,PR,41,412853,41021,21ª RS TELEMACO BORBA,2021-02-22,8,"",403,2,17,0,"","",0
Sul,PR,41,412853,41021,21ª RS TELEMACO BORBA,2021-02-23,8,"",411,8,17,0,"","",0
Sul,PR,41,412853,41021,21ª RS TELEMACO BORBA,2021-02-24,8,"",413,2,17,0,"","",0
Sul,PR,41,412853,41021,21ª RS TELEMACO BORBA,2021-02-25,8,"",416,3,17,0,"","",0
Sul,PR,41,412853,41021,21ª RS TELEMACO BORBA,2021-02-26,8,"",426,10,17,0,"","",0
Sul,PR,41,412853,41021,21ª RS TELEMACO BORBA,2021-02-27,8,"",433,7,17,0,"","",0
Sul,PR,41,412853,41021,21ª RS TELEMACO BORBA,2021-02-28,9,"",433,0,17,0,"","",0
Sul,PR,41,412853,41021,21ª RS TELEMACO BORBA,2021-03-01,9,"",437,4,17,0,"","",0
Sul,PR,41,412853,41021,21ª RS TELEMACO BORBA,2021-03-02,9,"",444,7,17,0,"","",0
Sul,PR,41,412853,41021,21ª RS TELEMACO BORBA,2021-03-03,9,"",448,4,17,0,"","",0
Sul,PR,41,412853,41021,21ª RS TELEMACO BORBA,2021-03-04,9,"",451,3,17,0,"","",0
Sul,PR,41,412853,41021,21ª RS TELEMACO BORBA,2021-03-05,9,"",451,0,17,0,"","",0
Sul,PR,41,412853,41021,21ª RS TELEMACO BORBA,2021-03-06,9,"",462,11,17,0,"","",0
Sul,PR,41,412853,41021,21ª RS TELEMACO BORBA,2021-03-07,10,"",462,0,17,0,"","",0
Sul,PR,41,412853,41021,21ª RS TELEMACO BORBA,2021-03-08,10,"",462,0,17,0,"","",0
Sul,PR,41,412853,41021,21ª RS TELEMACO BORBA,2021-03-09,10,"",464,2,17,0,"","",0
Sul,PR,41,412853,41021,21ª RS TELEMACO BORBA,2021-03-10,10,"",475,11,17,0,"","",0
Sul,PR,41,412853,41021,21ª RS TELEMACO BORBA,2021-03-11,10,"",476,1,17,0,"","",0
Sul,PR,41,412853,41021,21ª RS TELEMACO BORBA,2021-03-12,10,"",478,2,17,0,"","",0
Sul,PR,41,412853,41021,21ª RS TELEMACO BORBA,2021-03-13,10,"",482,4,17,0,"","",0
Sul,PR,41,412853,41021,21ª RS TELEMACO BORBA,2021-03-14,11,"",482,0,17,0,"","",0
Sul,PR,41,412853,41021,21ª RS TELEMACO BORBA,2021-03-15,11,"",482,0,17,0,"","",0
Sul,PR,41,412853,41021,21ª RS TELEMACO BORBA,2021-03-16,11,"",487,5,19,2,"","",0
Sul,PR,41,412853,41021,21ª RS TELEMACO BORBA,2021-03-17,11,"",488,1,19,0,"","",0
Sul,PR,41,412853,41021,21ª RS TELEMACO BORBA,2021-03-18,11,"",488,0,20,1,"","",0
Sul,PR,41,412853,41021,21ª RS TELEMACO BORBA,2021-03-19,11,"",489,1,20,0,"","",0
Sul,PR,41,412853,41021,21ª RS TELEMACO BORBA,2021-03-20,11,"",489,0,20,0,"","",0
Sul,PR,41,412853,41021,21ª RS TELEMACO BORBA,2021-03-21,12,"",489,0,20,0,"","",0
Sul,PR,41,412853,41021,21ª RS TELEMACO BORBA,2021-03-22,12,"",489,0,20,0,"","",0
Sul,PR,41,412853,41021,21ª RS TELEMACO BORBA,2021-03-23,12,"",493,4,20,0,"","",0
Sul,PR,41,412853,41021,21ª RS TELEMACO BORBA,2021-03-24,12,"",493,0,20,0,"","",0
Sul,PR,41,412853,41021,21ª RS TELEMACO BORBA,2021-03-25,12,"",497,4,20,0,"","",0
Sul,PR,41,412853,41021,21ª RS TELEMACO BORBA,2021-03-26,12,"",498,1,20,0,"","",0
Sul,PR,41,412853,41021,21ª RS TELEMACO BORBA,2021-03-27,12,"",503,5,20,0,"","",0
Sul,PR,41,412853,41021,21ª RS TELEMACO BORBA,2021-03-28,13,"",503,0,20,0,"","",0
Sul,PR,41,412853,41021,21ª RS TELEMACO BORBA,2021-03-29,13,"",507,4,20,0,"","",0
Sul,PR,41,412853,41021,21ª RS TELEMACO BORBA,2021-03-30,13,"",507,0,20,0,"","",0
Sul,PR,41,412853,41021,21ª RS TELEMACO BORBA,2021-03-31,13,"",512,5,20,0,"","",0
Sul,PR,41,412853,41021,21ª RS TELEMACO BORBA,2021-04-01,13,"",512,0,20,0,"","",0
Sul,PR,41,412853,41021,21ª RS TELEMACO BORBA,2021-04-02,13,"",512,0,20,0,"","",0
Sul,PR,41,412853,41021,21ª RS TELEMACO BORBA,2021-04-03,13,"",512,0,20,0,"","",0
Sul,PR,41,412853,41021,21ª RS TELEMACO BORBA,2021-04-04,14,"",512,0,20,0,"","",0
Sul,PR,41,412853,41021,21ª RS TELEMACO BORBA,2021-04-05,14,"",512,0,20,0,"","",0
Sul,PR,41,412853,41021,21ª RS TELEMACO BORBA,2021-04-06,14,"",512,0,20,0,"","",0
Sul,PR,41,412853,41021,21ª RS TELEMACO BORBA,2021-04-07,14,"",512,0,20,0,"","",0
Sul,PR,41,412853,41021,21ª RS TELEMACO BORBA,2021-04-08,14,"",531,19,20,0,"","",0
Sul,PR,41,412853,41021,21ª RS TELEMACO BORBA,2021-04-09,14,"",531,0,20,0,"","",0
Sul,PR,41,412853,41021,21ª RS TELEMACO BORBA,2021-04-10,14,"",540,9,20,0,"","",0
Sul,PR,41,412853,41021,21ª RS TELEMACO BORBA,2021-04-11,15,"",541,1,20,0,"","",0
Sul,PR,41,412853,41021,21ª RS TELEMACO BORBA,2021-04-12,15,"",550,9,20,0,"","",0
Sul,PR,41,412853,41021,21ª RS TELEMACO BORBA,2021-04-13,15,"",558,8,20,0,"","",0
Sul,PR,41,412853,41021,21ª RS TELEMACO BORBA,2021-04-14,15,"",561,3,20,0,"","",0
Sul,PR,41,412853,41021,21ª RS TELEMACO BORBA,2021-04-15,15,"",570,9,21,1,"","",0
Sul,PR,41,412853,41021,21ª RS TELEMACO BORBA,2021-04-16,15,"",570,0,21,0,"","",0
Sul,PR,41,412853,41021,21ª RS TELEMACO BORBA,2021-04-17,15,"",573,3,21,0,"","",0
Sul,PR,41,412853,41021,21ª RS TELEMACO BORBA,2021-04-18,16,"",593,20,22,1,"","",0
Sul,PR,41,412853,41021,21ª RS TELEMACO BORBA,2021-04-19,16,"",593,0,22,0,"","",0
Sul,PR,41,412853,41021,21ª RS TELEMACO BORBA,2021-04-20,16,"",593,0,22,0,"","",0
Sul,PR,41,412853,41021,21ª RS TELEMACO BORBA,2021-04-21,16,"",619,26,24,2,"","",0
Sul,PR,41,412853,41021,21ª RS TELEMACO BORBA,2021-04-22,16,"",623,4,24,0,"","",0
Sul,PR,41,412853,41021,21ª RS TELEMACO BORBA,2021-04-23,16,"",642,19,24,0,"","",0
Sul,PR,41,412853,41021,21ª RS TELEMACO BORBA,2021-04-24,16,"",643,1,24,0,"","",0
Sul,PR,41,412853,41021,21ª RS TELEMACO BORBA,2021-04-25,17,"",643,0,24,0,"","",0
Sul,PR,41,412853,41021,21ª RS TELEMACO BORBA,2021-04-26,17,"",656,13,24,0,"","",0
Sul,PR,41,412853,41021,21ª RS TELEMACO BORBA,2021-04-27,17,"",666,10,24,0,"","",0
Sul,PR,41,412853,41021,21ª RS TELEMACO BORBA,2021-04-28,17,"",666,0,24,0,"","",0
Sul,PR,41,412853,41021,21ª RS TELEMACO BORBA,2021-04-29,17,"",666,0,24,0,"","",0
Sul,PR,41,412853,41021,21ª RS TELEMACO BORBA,2021-04-30,17,"",683,17,24,0,"","",0
Sul,PR,41,412853,41021,21ª RS TELEMACO BORBA,2021-05-01,17,"",689,6,24,0,"","",0
Sul,PR,41,412853,41021,21ª RS TELEMACO BORBA,2021-05-02,18,"",689,0,24,0,"","",0
Sul,PR,41,412853,41021,21ª RS TELEMACO BORBA,2021-05-03,18,"",689,0,24,0,"","",0
Sul,PR,41,412853,41021,21ª RS TELEMACO BORBA,2021-05-04,18,"",690,1,24,0,"","",0
Sul,PR,41,412853,41021,21ª RS TELEMACO BORBA,2021-05-05,18,"",711,21,24,0,"","",0
Sul,PR,41,412853,41021,21ª RS TELEMACO BORBA,2021-05-06,18,"",714,3,24,0,"","",0
Sul,PR,41,412853,41021,21ª RS TELEMACO BORBA,2021-05-07,18,"",717,3,24,0,"","",0
Sul,PR,41,412853,41021,21ª RS TELEMACO BORBA,2021-05-08,18,"",740,23,25,1,"","",0
Sul,PR,41,412853,41021,21ª RS TELEMACO BORBA,2021-05-09,19,"",747,7,25,0,"","",0
Sul,PR,41,412853,41021,21ª RS TELEMACO BORBA,2021-05-10,19,"",749,2,25,0,"","",0
Sul,PR,41,412853,41021,21ª RS TELEMACO BORBA,2021-05-11,19,"",771,22,25,0,"","",0
Sul,PR,41,412853,41021,21ª RS TELEMACO BORBA,2021-05-12,19,"",779,8,26,1,"","",0
Sul,PR,41,412853,41021,21ª RS TELEMACO BORBA,2021-05-13,19,"",782,3,26,0,"","",0
Sul,PR,41,412853,41021,21ª RS TELEMACO BORBA,2021-05-14,19,"",788,6,26,0,"","",0
Sul,PR,41,412853,41021,21ª RS TELEMACO BORBA,2021-05-15,19,"",792,4,26,0,"","",0
Sul,PR,41,412853,41021,21ª RS TELEMACO BORBA,2021-05-16,20,"",803,11,26,0,"","",0
Sul,PR,41,412853,41021,21ª RS TELEMACO BORBA,2021-05-17,20,"",834,31,26,0,"","",0
Sul,PR,41,412853,41021,21ª RS TELEMACO BORBA,2021-05-18,20,"",844,10,26,0,"","",0
Sul,PR,41,412853,41021,21ª RS TELEMACO BORBA,2021-05-19,20,"",846,2,26,0,"","",0
Sul,PR,41,412853,41021,21ª RS TELEMACO BORBA,2021-05-20,20,"",847,1,26,0,"","",0
Sul,PR,41,412853,41021,21ª RS TELEMACO BORBA,2021-05-21,20,"",853,6,26,0,"","",0
Sul,PR,41,412853,41021,21ª RS TELEMACO BORBA,2021-05-22,20,"",854,1,26,0,"","",0
Sul,PR,41,412853,41021,21ª RS TELEMACO BORBA,2021-05-23,21,"",854,0,26,0,"","",0
Sul,PR,41,412853,41021,21ª RS TELEMACO BORBA,2021-05-24,21,"",854,0,26,0,"","",0
Sul,PR,41,412853,41021,21ª RS TELEMACO BORBA,2021-05-25,21,"",854,0,26,0,"","",0
Sul,PR,41,412853,41021,21ª RS TELEMACO BORBA,2021-05-26,21,"",854,0,26,0,"","",0
Sul,PR,41,412853,41021,21ª RS TELEMACO BORBA,2021-05-27,21,"",856,2,26,0,"","",0
Sul,PR,41,412853,41021,21ª RS TELEMACO BORBA,2021-05-28,21,"",857,1,26,0,"","",0
Sul,PR,41,412853,41021,21ª RS TELEMACO BORBA,2021-05-29,21,"",858,1,26,0,"","",0
Sul,PR,41,412853,41021,21ª RS TELEMACO BORBA,2021-05-30,22,"",859,1,26,0,"","",0
Sul,PR,41,412853,41021,21ª RS TELEMACO BORBA,2021-05-31,22,"",859,0,26,0,"","",0
Sul,PR,41,412853,41021,21ª RS TELEMACO BORBA,2021-06-01,22,"",859,0,27,1,"","",0
Sul,PR,41,412853,41021,21ª RS TELEMACO BORBA,2021-06-02,22,"",860,1,27,0,"","",0
Sul,PR,41,412853,41021,21ª RS TELEMACO BORBA,2021-06-03,22,"",861,1,27,0,"","",0
Sul,PR,41,412853,41021,21ª RS TELEMACO BORBA,2021-06-04,22,"",862,1,27,0,"","",0
Sul,PR,41,412853,41021,21ª RS TELEMACO BORBA,2021-06-05,22,"",862,0,27,0,"","",0
Sul,PR,41,412853,41021,21ª RS TELEMACO BORBA,2021-06-06,23,"",862,0,27,0,"","",0
Sul,PR,41,412853,41021,21ª RS TELEMACO BORBA,2021-06-07,23,"",862,0,27,0,"","",0
Sul,PR,41,412853,41021,21ª RS TELEMACO BORBA,2021-06-08,23,"",862,0,27,0,"","",0
Sul,PR,41,412853,41021,21ª RS TELEMACO BORBA,2021-06-09,23,"",862,0,28,1,"","",0
Sul,PR,41,412853,41021,21ª RS TELEMACO BORBA,2021-06-10,23,"",867,5,28,0,"","",0
Sul,PR,41,412853,41021,21ª RS TELEMACO BORBA,2021-06-11,23,"",869,2,28,0,"","",0
Sul,PR,41,412853,41021,21ª RS TELEMACO BORBA,2021-06-12,23,"",872,3,28,0,"","",0
Sul,PR,41,412853,41021,21ª RS TELEMACO BORBA,2021-06-13,24,"",872,0,28,0,"","",0
Sul,PR,41,412853,41021,21ª RS TELEMACO BORBA,2021-06-14,24,"",872,0,28,0,"","",0
Sul,PR,41,412853,41021,21ª RS TELEMACO BORBA,2021-06-15,24,"",877,5,34,6,"","",0
Sul,PR,41,412853,41021,21ª RS TELEMACO BORBA,2021-06-16,24,"",880,3,34,0,"","",0
Sul,PR,41,412853,41021,21ª RS TELEMACO BORBA,2021-06-17,24,"",895,15,35,1,"","",0
Sul,PR,41,412853,41021,21ª RS TELEMACO BORBA,2021-06-18,24,"",912,17,35,0,"","",0
Sul,PR,41,412853,41021,21ª RS TELEMACO BORBA,2021-06-19,24,"",930,18,35,0,"","",0
Sul,PR,41,412853,41021,21ª RS TELEMACO BORBA,2021-06-20,25,"",947,17,35,0,"","",0
Sul,PR,41,412853,41021,21ª RS TELEMACO BORBA,2021-06-21,25,"",975,28,35,0,"","",0
Sul,PR,41,412853,41021,21ª RS TELEMACO BORBA,2021-06-22,25,"",994,19,35,0,"","",0
Sul,PR,41,412853,41021,21ª RS TELEMACO BORBA,2021-06-23,25,"",1009,15,35,0,"","",0
Sul,PR,41,412853,41021,21ª RS TELEMACO BORBA,2021-06-24,25,"",1016,7,35,0,"","",0
Sul,PR,41,412853,41021,21ª RS TELEMACO BORBA,2021-06-25,25,"",1025,9,35,0,"","",0
Sul,PR,41,412853,41021,21ª RS TELEMACO BORBA,2021-06-26,25,"",1031,6,35,0,"","",0
Sul,PR,41,412853,41021,21ª RS TELEMACO BORBA,2021-06-27,26,"",1036,5,35,0,"","",0
Sul,PR,41,412853,41021,21ª RS TELEMACO BORBA,2021-06-28,26,"",1049,13,35,0,"","",0
Sul,PR,41,412853,41021,21ª RS TELEMACO BORBA,2021-06-29,26,"",1054,5,35,0,"","",0
Sul,PR,41,412853,41021,21ª RS TELEMACO BORBA,2021-06-30,26,"",1057,3,36,1,"","",0
