Sul,PR,41,410700,41021,21ª RS TELEMACO BORBA,2020-03-27,13,"",0,0,0,0,"","",0
Sul,PR,41,410700,41021,21ª RS TELEMACO BORBA,2020-03-28,13,"",0,0,0,0,"","",0
Sul,PR,41,410700,41021,21ª RS TELEMACO BORBA,2020-03-29,14,"",0,0,0,0,"","",0
Sul,PR,41,410700,41021,21ª RS TELEMACO BORBA,2020-03-30,14,"",0,0,0,0,"","",0
Sul,PR,41,410700,41021,21ª RS TELEMACO BORBA,2020-03-31,14,"",0,0,0,0,"","",0
Sul,PR,41,410700,41021,21ª RS TELEMACO BORBA,2020-04-01,14,"",0,0,0,0,"","",0
Sul,PR,41,410700,41021,21ª RS TELEMACO BORBA,2020-04-02,14,"",0,0,0,0,"","",0
Sul,PR,41,410700,41021,21ª RS TELEMACO BORBA,2020-04-03,14,"",0,0,0,0,"","",0
Sul,PR,41,410700,41021,21ª RS TELEMACO BORBA,2020-04-04,14,"",0,0,0,0,"","",0
Sul,PR,41,410700,41021,21ª RS TELEMACO BORBA,2020-04-05,15,"",0,0,0,0,"","",0
Sul,PR,41,410700,41021,21ª RS TELEMACO BORBA,2020-04-06,15,"",0,0,0,0,"","",0
Sul,PR,41,410700,41021,21ª RS TELEMACO BORBA,2020-04-07,15,"",0,0,0,0,"","",0
Sul,PR,41,410700,41021,21ª RS TELEMACO BORBA,2020-04-08,15,"",0,0,0,0,"","",0
Sul,PR,41,410700,41021,21ª RS TELEMACO BORBA,2020-04-09,15,"",0,0,0,0,"","",0
Sul,PR,41,410700,41021,21ª RS TELEMACO BORBA,2020-04-10,15,"",0,0,0,0,"","",0
Sul,PR,41,410700,41021,21ª RS TELEMACO BORBA,2020-04-11,15,"",0,0,0,0,"","",0
Sul,PR,41,410700,41021,21ª RS TELEMACO BORBA,2020-04-12,16,"",0,0,0,0,"","",0
Sul,PR,41,410700,41021,21ª RS TELEMACO BORBA,2020-04-13,16,"",0,0,0,0,"","",0
Sul,PR,41,410700,41021,21ª RS TELEMACO BORBA,2020-04-14,16,"",0,0,0,0,"","",0
Sul,PR,41,410700,41021,21ª RS TELEMACO BORBA,2020-04-15,16,"",0,0,0,0,"","",0
Sul,PR,41,410700,41021,21ª RS TELEMACO BORBA,2020-04-16,16,"",0,0,0,0,"","",0
Sul,PR,41,410700,41021,21ª RS TELEMACO BORBA,2020-04-17,16,"",0,0,0,0,"","",0
Sul,PR,41,410700,41021,21ª RS TELEMACO BORBA,2020-04-18,16,"",0,0,0,0,"","",0
Sul,PR,41,410700,41021,21ª RS TELEMACO BORBA,2020-04-19,17,"",0,0,0,0,"","",0
Sul,PR,41,410700,41021,21ª RS TELEMACO BORBA,2020-04-20,17,"",0,0,0,0,"","",0
Sul,PR,41,410700,41021,21ª RS TELEMACO BORBA,2020-04-21,17,"",0,0,0,0,"","",0
Sul,PR,41,410700,41021,21ª RS TELEMACO BORBA,2020-04-22,17,"",0,0,0,0,"","",0
Sul,PR,41,410700,41021,21ª RS TELEMACO BORBA,2020-04-23,17,"",0,0,0,0,"","",0
Sul,PR,41,410700,41021,21ª RS TELEMACO BORBA,2020-04-24,17,"",0,0,0,0,"","",0
Sul,PR,41,410700,41021,21ª RS TELEMACO BORBA,2020-04-25,17,"",0,0,0,0,"","",0
Sul,PR,41,410700,41021,21ª RS TELEMACO BORBA,2020-04-26,18,"",0,0,0,0,"","",0
Sul,PR,41,410700,41021,21ª RS TELEMACO BORBA,2020-04-27,18,"",0,0,0,0,"","",0
Sul,PR,41,410700,41021,21ª RS TELEMACO BORBA,2020-04-28,18,"",0,0,0,0,"","",0
Sul,PR,41,410700,41021,21ª RS TELEMACO BORBA,2020-04-29,18,"",0,0,0,0,"","",0
Sul,PR,41,410700,41021,21ª RS TELEMACO BORBA,2020-04-30,18,"",0,0,0,0,"","",0
Sul,PR,41,410700,41021,21ª RS TELEMACO BORBA,2020-05-01,18,"",0,0,0,0,"","",0
Sul,PR,41,410700,41021,21ª RS TELEMACO BORBA,2020-05-02,18,"",0,0,0,0,"","",0
Sul,PR,41,410700,41021,21ª RS TELEMACO BORBA,2020-05-03,19,"",0,0,0,0,"","",0
Sul,PR,41,410700,41021,21ª RS TELEMACO BORBA,2020-05-04,19,"",0,0,0,0,"","",0
Sul,PR,41,410700,41021,21ª RS TELEMACO BORBA,2020-05-05,19,"",0,0,0,0,"","",0
Sul,PR,41,410700,41021,21ª RS TELEMACO BORBA,2020-05-06,19,"",0,0,0,0,"","",0
Sul,PR,41,410700,41021,21ª RS TELEMACO BORBA,2020-05-07,19,"",0,0,0,0,"","",0
Sul,PR,41,410700,41021,21ª RS TELEMACO BORBA,2020-05-08,19,"",0,0,0,0,"","",0
Sul,PR,41,410700,41021,21ª RS TELEMACO BORBA,2020-05-09,19,"",0,0,0,0,"","",0
Sul,PR,41,410700,41021,21ª RS TELEMACO BORBA,2020-05-10,20,"",0,0,0,0,"","",0
Sul,PR,41,410700,41021,21ª RS TELEMACO BORBA,2020-05-11,20,"",0,0,0,0,"","",0
Sul,PR,41,410700,41021,21ª RS TELEMACO BORBA,2020-05-12,20,"",0,0,0,0,"","",0
Sul,PR,41,410700,41021,21ª RS TELEMACO BORBA,2020-05-13,20,"",0,0,0,0,"","",0
Sul,PR,41,410700,41021,21ª RS TELEMACO BORBA,2020-05-14,20,"",0,0,0,0,"","",0
Sul,PR,41,410700,41021,21ª RS TELEMACO BORBA,2020-05-15,20,"",0,0,0,0,"","",0
Sul,PR,41,410700,41021,21ª RS TELEMACO BORBA,2020-05-16,20,"",0,0,0,0,"","",0
Sul,PR,41,410700,41021,21ª RS TELEMACO BORBA,2020-05-17,21,"",0,0,0,0,"","",0
Sul,PR,41,410700,41021,21ª RS TELEMACO BORBA,2020-05-18,21,"",0,0,0,0,"","",0
Sul,PR,41,410700,41021,21ª RS TELEMACO BORBA,2020-05-19,21,"",0,0,0,0,"","",0
Sul,PR,41,410700,41021,21ª RS TELEMACO BORBA,2020-05-20,21,"",0,0,0,0,"","",0
Sul,PR,41,410700,41021,21ª RS TELEMACO BORBA,2020-05-21,21,"",0,0,0,0,"","",0
Sul,PR,41,410700,41021,21ª RS TELEMACO BORBA,2020-05-22,21,"",0,0,0,0,"","",0
Sul,PR,41,410700,41021,21ª RS TELEMACO BORBA,2020-05-23,21,"",0,0,0,0,"","",0
Sul,PR,41,410700,41021,21ª RS TELEMACO BORBA,2020-05-24,22,"",0,0,0,0,"","",0
Sul,PR,41,410700,41021,21ª RS TELEMACO BORBA,2020-05-25,22,"",0,0,0,0,"","",0
Sul,PR,41,410700,41021,21ª RS TELEMACO BORBA,2020-05-26,22,"",0,0,0,0,"","",0
Sul,PR,41,410700,41021,21ª RS TELEMACO BORBA,2020-05-27,22,"",0,0,0,0,"","",0
Sul,PR,41,410700,41021,21ª RS TELEMACO BORBA,2020-05-28,22,"",0,0,0,0,"","",0
Sul,PR,41,410700,41021,21ª RS TELEMACO BORBA,2020-05-29,22,"",0,0,0,0,"","",0
Sul,PR,41,410700,41021,21ª RS TELEMACO BORBA,2020-05-30,22,"",0,0,0,0,"","",0
Sul,PR,41,410700,41021,21ª RS TELEMACO BORBA,2020-05-31,23,"",0,0,0,0,"","",0
Sul,PR,41,410700,41021,21ª RS TELEMACO BORBA,2020-06-01,23,"",0,0,0,0,"","",0
Sul,PR,41,410700,41021,21ª RS TELEMACO BORBA,2020-06-02,23,"",3,3,0,0,"","",0
Sul,PR,41,410700,41021,21ª RS TELEMACO BORBA,2020-06-03,23,"",3,0,0,0,"","",0
Sul,PR,41,410700,41021,21ª RS TELEMACO BORBA,2020-06-04,23,"",3,0,0,0,"","",0
Sul,PR,41,410700,41021,21ª RS TELEMACO BORBA,2020-06-05,23,"",3,0,0,0,"","",0
Sul,PR,41,410700,41021,21ª RS TELEMACO BORBA,2020-06-06,23,"",3,0,0,0,"","",0
Sul,PR,41,410700,41021,21ª RS TELEMACO BORBA,2020-06-07,24,"",3,0,0,0,"","",0
Sul,PR,41,410700,41021,21ª RS TELEMACO BORBA,2020-06-08,24,"",3,0,0,0,"","",0
Sul,PR,41,410700,41021,21ª RS TELEMACO BORBA,2020-06-09,24,"",3,0,0,0,"","",0
Sul,PR,41,410700,41021,21ª RS TELEMACO BORBA,2020-06-10,24,"",3,0,0,0,"","",0
Sul,PR,41,410700,41021,21ª RS TELEMACO BORBA,2020-06-11,24,"",3,0,0,0,"","",0
Sul,PR,41,410700,41021,21ª RS TELEMACO BORBA,2020-06-12,24,"",3,0,0,0,"","",0
Sul,PR,41,410700,41021,21ª RS TELEMACO BORBA,2020-06-13,24,"",3,0,0,0,"","",0
Sul,PR,41,410700,41021,21ª RS TELEMACO BORBA,2020-06-14,25,"",3,0,0,0,"","",0
Sul,PR,41,410700,41021,21ª RS TELEMACO BORBA,2020-06-15,25,"",3,0,0,0,"","",0
Sul,PR,41,410700,41021,21ª RS TELEMACO BORBA,2020-06-16,25,"",3,0,0,0,"","",0
Sul,PR,41,410700,41021,21ª RS TELEMACO BORBA,2020-06-17,25,"",3,0,0,0,"","",0
Sul,PR,41,410700,41021,21ª RS TELEMACO BORBA,2020-06-18,25,"",3,0,0,0,"","",0
Sul,PR,41,410700,41021,21ª RS TELEMACO BORBA,2020-06-19,25,"",4,1,0,0,"","",0
Sul,PR,41,410700,41021,21ª RS TELEMACO BORBA,2020-06-20,25,"",4,0,0,0,"","",0
Sul,PR,41,410700,41021,21ª RS TELEMACO BORBA,2020-06-21,26,"",4,0,0,0,"","",0
Sul,PR,41,410700,41021,21ª RS TELEMACO BORBA,2020-06-22,26,"",5,1,0,0,"","",0
Sul,PR,41,410700,41021,21ª RS TELEMACO BORBA,2020-06-23,26,"",6,1,0,0,"","",0
Sul,PR,41,410700,41021,21ª RS TELEMACO BORBA,2020-06-24,26,"",6,0,0,0,"","",0
Sul,PR,41,410700,41021,21ª RS TELEMACO BORBA,2020-06-25,26,"",7,1,0,0,"","",0
Sul,PR,41,410700,41021,21ª RS TELEMACO BORBA,2020-06-26,26,"",7,0,0,0,"","",0
Sul,PR,41,410700,41021,21ª RS TELEMACO BORBA,2020-06-27,26,"",7,0,0,0,"","",0
Sul,PR,41,410700,41021,21ª RS TELEMACO BORBA,2020-06-28,27,"",7,0,0,0,"","",0
Sul,PR,41,410700,41021,21ª RS TELEMACO BORBA,2020-06-29,27,"",7,0,0,0,"","",0
Sul,PR,41,410700,41021,21ª RS TELEMACO BORBA,2020-06-30,27,"",7,0,0,0,"","",0
Sul,PR,41,410700,41021,21ª RS TELEMACO BORBA,2020-07-01,27,"",7,0,0,0,"","",0
Sul,PR,41,410700,41021,21ª RS TELEMACO BORBA,2020-07-02,27,"",12,5,0,0,"","",0
Sul,PR,41,410700,41021,21ª RS TELEMACO BORBA,2020-07-03,27,"",14,2,0,0,"","",0
Sul,PR,41,410700,41021,21ª RS TELEMACO BORBA,2020-07-04,27,"",17,3,0,0,"","",0
Sul,PR,41,410700,41021,21ª RS TELEMACO BORBA,2020-07-05,28,"",17,0,1,1,"","",0
Sul,PR,41,410700,41021,21ª RS TELEMACO BORBA,2020-07-06,28,"",19,2,1,0,"","",0
Sul,PR,41,410700,41021,21ª RS TELEMACO BORBA,2020-07-07,28,"",19,0,1,0,"","",0
Sul,PR,41,410700,41021,21ª RS TELEMACO BORBA,2020-07-08,28,"",21,2,1,0,"","",0
Sul,PR,41,410700,41021,21ª RS TELEMACO BORBA,2020-07-09,28,"",23,2,1,0,"","",0
Sul,PR,41,410700,41021,21ª RS TELEMACO BORBA,2020-07-10,28,"",26,3,1,0,"","",0
Sul,PR,41,410700,41021,21ª RS TELEMACO BORBA,2020-07-11,28,"",28,2,1,0,"","",0
Sul,PR,41,410700,41021,21ª RS TELEMACO BORBA,2020-07-12,29,"",29,1,1,0,"","",0
Sul,PR,41,410700,41021,21ª RS TELEMACO BORBA,2020-07-13,29,"",29,0,1,0,"","",0
Sul,PR,41,410700,41021,21ª RS TELEMACO BORBA,2020-07-14,29,"",44,15,1,0,"","",0
Sul,PR,41,410700,41021,21ª RS TELEMACO BORBA,2020-07-15,29,"",47,3,2,1,"","",0
Sul,PR,41,410700,41021,21ª RS TELEMACO BORBA,2020-07-16,29,"",47,0,2,0,"","",0
Sul,PR,41,410700,41021,21ª RS TELEMACO BORBA,2020-07-17,29,"",52,5,3,1,"","",0
Sul,PR,41,410700,41021,21ª RS TELEMACO BORBA,2020-07-18,29,"",76,24,3,0,"","",0
Sul,PR,41,410700,41021,21ª RS TELEMACO BORBA,2020-07-19,30,"",76,0,3,0,"","",0
Sul,PR,41,410700,41021,21ª RS TELEMACO BORBA,2020-07-20,30,"",81,5,3,0,"","",0
Sul,PR,41,410700,41021,21ª RS TELEMACO BORBA,2020-07-21,30,"",87,6,3,0,"","",0
Sul,PR,41,410700,41021,21ª RS TELEMACO BORBA,2020-07-22,30,"",88,1,4,1,"","",0
Sul,PR,41,410700,41021,21ª RS TELEMACO BORBA,2020-07-23,30,"",88,0,4,0,"","",0
Sul,PR,41,410700,41021,21ª RS TELEMACO BORBA,2020-07-24,30,"",93,5,4,0,"","",0
Sul,PR,41,410700,41021,21ª RS TELEMACO BORBA,2020-07-25,30,"",94,1,5,1,"","",0
Sul,PR,41,410700,41021,21ª RS TELEMACO BORBA,2020-07-26,31,"",97,3,5,0,"","",0
Sul,PR,41,410700,41021,21ª RS TELEMACO BORBA,2020-07-27,31,"",97,0,6,1,"","",0
Sul,PR,41,410700,41021,21ª RS TELEMACO BORBA,2020-07-28,31,"",105,8,6,0,"","",0
Sul,PR,41,410700,41021,21ª RS TELEMACO BORBA,2020-07-29,31,"",106,1,6,0,"","",0
Sul,PR,41,410700,41021,21ª RS TELEMACO BORBA,2020-07-30,31,"",111,5,6,0,"","",0
Sul,PR,41,410700,41021,21ª RS TELEMACO BORBA,2020-07-31,31,"",111,0,6,0,"","",0
