Sul,PR,41,411730,41021,21ª RS TELEMACO BORBA,2021-01-01,53,"",715,3,13,0,"","",0
Sul,PR,41,411730,41021,21ª RS TELEMACO BORBA,2021-01-02,53,"",716,1,13,0,"","",0
Sul,PR,41,411730,41021,21ª RS TELEMACO BORBA,2021-01-03,1,"",716,0,13,0,"","",0
Sul,PR,41,411730,41021,21ª RS TELEMACO BORBA,2021-01-04,1,"",716,0,13,0,"","",0
Sul,PR,41,411730,41021,21ª RS TELEMACO BORBA,2021-01-05,1,"",737,21,13,0,"","",0
Sul,PR,41,411730,41021,21ª RS TELEMACO BORBA,2021-01-06,1,"",741,4,13,0,"","",0
Sul,PR,41,411730,41021,21ª RS TELEMACO BORBA,2021-01-07,1,"",825,84,13,0,"","",0
Sul,PR,41,411730,41021,21ª RS TELEMACO BORBA,2021-01-08,1,"",825,0,13,0,"","",0
Sul,PR,41,411730,41021,21ª RS TELEMACO BORBA,2021-01-09,1,"",842,17,13,0,"","",0
Sul,PR,41,411730,41021,21ª RS TELEMACO BORBA,2021-01-10,2,"",842,0,13,0,"","",0
Sul,PR,41,411730,41021,21ª RS TELEMACO BORBA,2021-01-11,2,"",846,4,13,0,"","",0
Sul,PR,41,411730,41021,21ª RS TELEMACO BORBA,2021-01-12,2,"",870,24,13,0,"","",0
Sul,PR,41,411730,41021,21ª RS TELEMACO BORBA,2021-01-13,2,"",866,-4,13,0,"","",0
Sul,PR,41,411730,41021,21ª RS TELEMACO BORBA,2021-01-14,2,"",874,8,13,0,"","",0
Sul,PR,41,411730,41021,21ª RS TELEMACO BORBA,2021-01-15,2,"",889,15,14,1,"","",0
Sul,PR,41,411730,41021,21ª RS TELEMACO BORBA,2021-01-16,2,"",897,8,14,0,"","",0
Sul,PR,41,411730,41021,21ª RS TELEMACO BORBA,2021-01-17,3,"",897,0,14,0,"","",0
Sul,PR,41,411730,41021,21ª RS TELEMACO BORBA,2021-01-18,3,"",902,5,14,0,"","",0
Sul,PR,41,411730,41021,21ª RS TELEMACO BORBA,2021-01-19,3,"",914,12,14,0,"","",0
Sul,PR,41,411730,41021,21ª RS TELEMACO BORBA,2021-01-20,3,"",917,3,14,0,"","",0
Sul,PR,41,411730,41021,21ª RS TELEMACO BORBA,2021-01-21,3,"",920,3,13,-1,"","",0
Sul,PR,41,411730,41021,21ª RS TELEMACO BORBA,2021-01-22,3,"",922,2,13,0,"","",0
Sul,PR,41,411730,41021,21ª RS TELEMACO BORBA,2021-01-23,3,"",931,9,13,0,"","",0
Sul,PR,41,411730,41021,21ª RS TELEMACO BORBA,2021-01-24,4,"",931,0,13,0,"","",0
Sul,PR,41,411730,41021,21ª RS TELEMACO BORBA,2021-01-25,4,"",932,1,13,0,"","",0
Sul,PR,41,411730,41021,21ª RS TELEMACO BORBA,2021-01-26,4,"",943,11,13,0,"","",0
Sul,PR,41,411730,41021,21ª RS TELEMACO BORBA,2021-01-27,4,"",948,5,13,0,"","",0
Sul,PR,41,411730,41021,21ª RS TELEMACO BORBA,2021-01-28,4,"",953,5,13,0,"","",0
Sul,PR,41,411730,41021,21ª RS TELEMACO BORBA,2021-01-29,4,"",953,0,13,0,"","",0
Sul,PR,41,411730,41021,21ª RS TELEMACO BORBA,2021-01-30,4,"",955,2,13,0,"","",0
Sul,PR,41,411730,41021,21ª RS TELEMACO BORBA,2021-01-31,5,"",955,0,13,0,"","",0
Sul,PR,41,411730,41021,21ª RS TELEMACO BORBA,2021-02-01,5,"",958,3,13,0,"","",0
Sul,PR,41,411730,41021,21ª RS TELEMACO BORBA,2021-02-02,5,"",961,3,13,0,"","",0
Sul,PR,41,411730,41021,21ª RS TELEMACO BORBA,2021-02-03,5,"",962,1,13,0,"","",0
Sul,PR,41,411730,41021,21ª RS TELEMACO BORBA,2021-02-04,5,"",964,2,13,0,"","",0
Sul,PR,41,411730,41021,21ª RS TELEMACO BORBA,2021-02-05,5,"",969,5,13,0,"","",0
Sul,PR,41,411730,41021,21ª RS TELEMACO BORBA,2021-02-06,5,"",970,1,13,0,"","",0
Sul,PR,41,411730,41021,21ª RS TELEMACO BORBA,2021-02-07,6,"",971,1,13,0,"","",0
Sul,PR,41,411730,41021,21ª RS TELEMACO BORBA,2021-02-08,6,"",973,2,13,0,"","",0
Sul,PR,41,411730,41021,21ª RS TELEMACO BORBA,2021-02-09,6,"",980,7,13,0,"","",0
Sul,PR,41,411730,41021,21ª RS TELEMACO BORBA,2021-02-10,6,"",985,5,13,0,"","",0
Sul,PR,41,411730,41021,21ª RS TELEMACO BORBA,2021-02-11,6,"",990,5,13,0,"","",0
Sul,PR,41,411730,41021,21ª RS TELEMACO BORBA,2021-02-12,6,"",998,8,13,0,"","",0
Sul,PR,41,411730,41021,21ª RS TELEMACO BORBA,2021-02-13,6,"",1000,2,13,0,"","",0
Sul,PR,41,411730,41021,21ª RS TELEMACO BORBA,2021-02-14,7,"",1003,3,13,0,"","",0
Sul,PR,41,411730,41021,21ª RS TELEMACO BORBA,2021-02-15,7,"",1004,1,13,0,"","",0
Sul,PR,41,411730,41021,21ª RS TELEMACO BORBA,2021-02-16,7,"",1006,2,13,0,"","",0
Sul,PR,41,411730,41021,21ª RS TELEMACO BORBA,2021-02-17,7,"",1012,6,13,0,"","",0
Sul,PR,41,411730,41021,21ª RS TELEMACO BORBA,2021-02-18,7,"",1024,12,13,0,"","",0
Sul,PR,41,411730,41021,21ª RS TELEMACO BORBA,2021-02-19,7,"",1027,3,13,0,"","",0
Sul,PR,41,411730,41021,21ª RS TELEMACO BORBA,2021-02-20,7,"",1030,3,13,0,"","",0
Sul,PR,41,411730,41021,21ª RS TELEMACO BORBA,2021-02-21,8,"",1033,3,13,0,"","",0
Sul,PR,41,411730,41021,21ª RS TELEMACO BORBA,2021-02-22,8,"",1036,3,13,0,"","",0
Sul,PR,41,411730,41021,21ª RS TELEMACO BORBA,2021-02-23,8,"",1042,6,14,1,"","",0
Sul,PR,41,411730,41021,21ª RS TELEMACO BORBA,2021-02-24,8,"",1045,3,14,0,"","",0
Sul,PR,41,411730,41021,21ª RS TELEMACO BORBA,2021-02-25,8,"",1050,5,14,0,"","",0
Sul,PR,41,411730,41021,21ª RS TELEMACO BORBA,2021-02-26,8,"",1054,4,14,0,"","",0
Sul,PR,41,411730,41021,21ª RS TELEMACO BORBA,2021-02-27,8,"",1073,19,14,0,"","",0
Sul,PR,41,411730,41021,21ª RS TELEMACO BORBA,2021-02-28,9,"",1076,3,14,0,"","",0
Sul,PR,41,411730,41021,21ª RS TELEMACO BORBA,2021-03-01,9,"",1082,6,14,0,"","",0
Sul,PR,41,411730,41021,21ª RS TELEMACO BORBA,2021-03-02,9,"",1108,26,14,0,"","",0
Sul,PR,41,411730,41021,21ª RS TELEMACO BORBA,2021-03-03,9,"",1110,2,14,0,"","",0
Sul,PR,41,411730,41021,21ª RS TELEMACO BORBA,2021-03-04,9,"",1115,5,14,0,"","",0
Sul,PR,41,411730,41021,21ª RS TELEMACO BORBA,2021-03-05,9,"",1118,3,14,0,"","",0
Sul,PR,41,411730,41021,21ª RS TELEMACO BORBA,2021-03-06,9,"",1122,4,14,0,"","",0
Sul,PR,41,411730,41021,21ª RS TELEMACO BORBA,2021-03-07,10,"",1134,12,15,1,"","",0
Sul,PR,41,411730,41021,21ª RS TELEMACO BORBA,2021-03-08,10,"",1134,0,15,0,"","",0
Sul,PR,41,411730,41021,21ª RS TELEMACO BORBA,2021-03-09,10,"",1142,8,15,0,"","",0
Sul,PR,41,411730,41021,21ª RS TELEMACO BORBA,2021-03-10,10,"",1146,4,16,1,"","",0
Sul,PR,41,411730,41021,21ª RS TELEMACO BORBA,2021-03-11,10,"",1149,3,16,0,"","",0
Sul,PR,41,411730,41021,21ª RS TELEMACO BORBA,2021-03-12,10,"",1149,0,16,0,"","",0
Sul,PR,41,411730,41021,21ª RS TELEMACO BORBA,2021-03-13,10,"",1151,2,16,0,"","",0
Sul,PR,41,411730,41021,21ª RS TELEMACO BORBA,2021-03-14,11,"",1159,8,16,0,"","",0
Sul,PR,41,411730,41021,21ª RS TELEMACO BORBA,2021-03-15,11,"",1161,2,16,0,"","",0
Sul,PR,41,411730,41021,21ª RS TELEMACO BORBA,2021-03-16,11,"",1163,2,16,0,"","",0
Sul,PR,41,411730,41021,21ª RS TELEMACO BORBA,2021-03-17,11,"",1170,7,16,0,"","",0
Sul,PR,41,411730,41021,21ª RS TELEMACO BORBA,2021-03-18,11,"",1185,15,16,0,"","",0
Sul,PR,41,411730,41021,21ª RS TELEMACO BORBA,2021-03-19,11,"",1189,4,16,0,"","",0
Sul,PR,41,411730,41021,21ª RS TELEMACO BORBA,2021-03-20,11,"",1195,6,16,0,"","",0
Sul,PR,41,411730,41021,21ª RS TELEMACO BORBA,2021-03-21,12,"",1195,0,16,0,"","",0
Sul,PR,41,411730,41021,21ª RS TELEMACO BORBA,2021-03-22,12,"",1196,1,16,0,"","",0
Sul,PR,41,411730,41021,21ª RS TELEMACO BORBA,2021-03-23,12,"",1210,14,16,0,"","",0
Sul,PR,41,411730,41021,21ª RS TELEMACO BORBA,2021-03-24,12,"",1218,8,16,0,"","",0
Sul,PR,41,411730,41021,21ª RS TELEMACO BORBA,2021-03-25,12,"",1234,16,16,0,"","",0
Sul,PR,41,411730,41021,21ª RS TELEMACO BORBA,2021-03-26,12,"",1240,6,16,0,"","",0
Sul,PR,41,411730,41021,21ª RS TELEMACO BORBA,2021-03-27,12,"",1248,8,16,0,"","",0
Sul,PR,41,411730,41021,21ª RS TELEMACO BORBA,2021-03-28,13,"",1260,12,16,0,"","",0
Sul,PR,41,411730,41021,21ª RS TELEMACO BORBA,2021-03-29,13,"",1262,2,16,0,"","",0
Sul,PR,41,411730,41021,21ª RS TELEMACO BORBA,2021-03-30,13,"",1270,8,16,0,"","",0
Sul,PR,41,411730,41021,21ª RS TELEMACO BORBA,2021-03-31,13,"",1276,6,16,0,"","",0
Sul,PR,41,411730,41021,21ª RS TELEMACO BORBA,2021-04-01,13,"",1285,9,17,1,"","",0
Sul,PR,41,411730,41021,21ª RS TELEMACO BORBA,2021-04-02,13,"",1288,3,17,0,"","",0
Sul,PR,41,411730,41021,21ª RS TELEMACO BORBA,2021-04-03,13,"",1288,0,17,0,"","",0
Sul,PR,41,411730,41021,21ª RS TELEMACO BORBA,2021-04-04,14,"",1289,1,17,0,"","",0
Sul,PR,41,411730,41021,21ª RS TELEMACO BORBA,2021-04-05,14,"",1289,0,17,0,"","",0
Sul,PR,41,411730,41021,21ª RS TELEMACO BORBA,2021-04-06,14,"",1315,26,17,0,"","",0
Sul,PR,41,411730,41021,21ª RS TELEMACO BORBA,2021-04-07,14,"",1327,12,18,1,"","",0
Sul,PR,41,411730,41021,21ª RS TELEMACO BORBA,2021-04-08,14,"",1334,7,19,1,"","",0
Sul,PR,41,411730,41021,21ª RS TELEMACO BORBA,2021-04-09,14,"",1335,1,19,0,"","",0
Sul,PR,41,411730,41021,21ª RS TELEMACO BORBA,2021-04-10,14,"",1337,2,19,0,"","",0
Sul,PR,41,411730,41021,21ª RS TELEMACO BORBA,2021-04-11,15,"",1337,0,19,0,"","",0
Sul,PR,41,411730,41021,21ª RS TELEMACO BORBA,2021-04-12,15,"",1337,0,20,1,"","",0
Sul,PR,41,411730,41021,21ª RS TELEMACO BORBA,2021-04-13,15,"",1353,16,21,1,"","",0
Sul,PR,41,411730,41021,21ª RS TELEMACO BORBA,2021-04-14,15,"",1363,10,21,0,"","",0
Sul,PR,41,411730,41021,21ª RS TELEMACO BORBA,2021-04-15,15,"",1364,1,21,0,"","",0
Sul,PR,41,411730,41021,21ª RS TELEMACO BORBA,2021-04-16,15,"",1366,2,21,0,"","",0
Sul,PR,41,411730,41021,21ª RS TELEMACO BORBA,2021-04-17,15,"",1368,2,21,0,"","",0
Sul,PR,41,411730,41021,21ª RS TELEMACO BORBA,2021-04-18,16,"",1369,1,21,0,"","",0
Sul,PR,41,411730,41021,21ª RS TELEMACO BORBA,2021-04-19,16,"",1369,0,21,0,"","",0
Sul,PR,41,411730,41021,21ª RS TELEMACO BORBA,2021-04-20,16,"",1371,2,21,0,"","",0
Sul,PR,41,411730,41021,21ª RS TELEMACO BORBA,2021-04-21,16,"",1374,3,21,0,"","",0
Sul,PR,41,411730,41021,21ª RS TELEMACO BORBA,2021-04-22,16,"",1384,10,21,0,"","",0
Sul,PR,41,411730,41021,21ª RS TELEMACO BORBA,2021-04-23,16,"",1412,28,21,0,"","",0
Sul,PR,41,411730,41021,21ª RS TELEMACO BORBA,2021-04-24,16,"",1419,7,21,0,"","",0
Sul,PR,41,411730,41021,21ª RS TELEMACO BORBA,2021-04-25,17,"",1421,2,21,0,"","",0
Sul,PR,41,411730,41021,21ª RS TELEMACO BORBA,2021-04-26,17,"",1424,3,21,0,"","",0
Sul,PR,41,411730,41021,21ª RS TELEMACO BORBA,2021-04-27,17,"",1426,2,23,2,"","",0
Sul,PR,41,411730,41021,21ª RS TELEMACO BORBA,2021-04-28,17,"",1431,5,23,0,"","",0
Sul,PR,41,411730,41021,21ª RS TELEMACO BORBA,2021-04-29,17,"",1441,10,24,1,"","",0
Sul,PR,41,411730,41021,21ª RS TELEMACO BORBA,2021-04-30,17,"",1446,5,24,0,"","",0
Sul,PR,41,411730,41021,21ª RS TELEMACO BORBA,2021-05-01,17,"",1449,3,24,0,"","",0
Sul,PR,41,411730,41021,21ª RS TELEMACO BORBA,2021-05-02,18,"",1449,0,24,0,"","",0
Sul,PR,41,411730,41021,21ª RS TELEMACO BORBA,2021-05-03,18,"",1449,0,24,0,"","",0
Sul,PR,41,411730,41021,21ª RS TELEMACO BORBA,2021-05-04,18,"",1451,2,24,0,"","",0
Sul,PR,41,411730,41021,21ª RS TELEMACO BORBA,2021-05-05,18,"",1458,7,24,0,"","",0
Sul,PR,41,411730,41021,21ª RS TELEMACO BORBA,2021-05-06,18,"",1465,7,24,0,"","",0
Sul,PR,41,411730,41021,21ª RS TELEMACO BORBA,2021-05-07,18,"",1479,14,24,0,"","",0
Sul,PR,41,411730,41021,21ª RS TELEMACO BORBA,2021-05-08,18,"",1484,5,24,0,"","",0
Sul,PR,41,411730,41021,21ª RS TELEMACO BORBA,2021-05-09,19,"",1485,1,24,0,"","",0
Sul,PR,41,411730,41021,21ª RS TELEMACO BORBA,2021-05-10,19,"",1489,4,24,0,"","",0
Sul,PR,41,411730,41021,21ª RS TELEMACO BORBA,2021-05-11,19,"",1492,3,24,0,"","",0
Sul,PR,41,411730,41021,21ª RS TELEMACO BORBA,2021-05-12,19,"",1501,9,24,0,"","",0
Sul,PR,41,411730,41021,21ª RS TELEMACO BORBA,2021-05-13,19,"",1512,11,24,0,"","",0
Sul,PR,41,411730,41021,21ª RS TELEMACO BORBA,2021-05-14,19,"",1517,5,24,0,"","",0
Sul,PR,41,411730,41021,21ª RS TELEMACO BORBA,2021-05-15,19,"",1529,12,24,0,"","",0
Sul,PR,41,411730,41021,21ª RS TELEMACO BORBA,2021-05-16,20,"",1535,6,24,0,"","",0
Sul,PR,41,411730,41021,21ª RS TELEMACO BORBA,2021-05-17,20,"",1535,0,24,0,"","",0
Sul,PR,41,411730,41021,21ª RS TELEMACO BORBA,2021-05-18,20,"",1545,10,25,1,"","",0
Sul,PR,41,411730,41021,21ª RS TELEMACO BORBA,2021-05-19,20,"",1560,15,26,1,"","",0
Sul,PR,41,411730,41021,21ª RS TELEMACO BORBA,2021-05-20,20,"",1569,9,26,0,"","",0
Sul,PR,41,411730,41021,21ª RS TELEMACO BORBA,2021-05-21,20,"",1579,10,26,0,"","",0
Sul,PR,41,411730,41021,21ª RS TELEMACO BORBA,2021-05-22,20,"",1607,28,26,0,"","",0
Sul,PR,41,411730,41021,21ª RS TELEMACO BORBA,2021-05-23,21,"",1608,1,26,0,"","",0
Sul,PR,41,411730,41021,21ª RS TELEMACO BORBA,2021-05-24,21,"",1614,6,26,0,"","",0
Sul,PR,41,411730,41021,21ª RS TELEMACO BORBA,2021-05-25,21,"",1620,6,26,0,"","",0
Sul,PR,41,411730,41021,21ª RS TELEMACO BORBA,2021-05-26,21,"",1625,5,26,0,"","",0
Sul,PR,41,411730,41021,21ª RS TELEMACO BORBA,2021-05-27,21,"",1628,3,26,0,"","",0
Sul,PR,41,411730,41021,21ª RS TELEMACO BORBA,2021-05-28,21,"",1645,17,28,2,"","",0
Sul,PR,41,411730,41021,21ª RS TELEMACO BORBA,2021-05-29,21,"",1651,6,29,1,"","",0
Sul,PR,41,411730,41021,21ª RS TELEMACO BORBA,2021-05-30,22,"",1653,2,29,0,"","",0
Sul,PR,41,411730,41021,21ª RS TELEMACO BORBA,2021-05-31,22,"",1653,0,29,0,"","",0
Sul,PR,41,411730,41021,21ª RS TELEMACO BORBA,2021-06-01,22,"",1659,6,29,0,"","",0
Sul,PR,41,411730,41021,21ª RS TELEMACO BORBA,2021-06-02,22,"",1674,15,29,0,"","",0
Sul,PR,41,411730,41021,21ª RS TELEMACO BORBA,2021-06-03,22,"",1685,11,29,0,"","",0
Sul,PR,41,411730,41021,21ª RS TELEMACO BORBA,2021-06-04,22,"",1687,2,29,0,"","",0
Sul,PR,41,411730,41021,21ª RS TELEMACO BORBA,2021-06-05,22,"",1692,5,29,0,"","",0
Sul,PR,41,411730,41021,21ª RS TELEMACO BORBA,2021-06-06,23,"",1692,0,29,0,"","",0
Sul,PR,41,411730,41021,21ª RS TELEMACO BORBA,2021-06-07,23,"",1694,2,29,0,"","",0
Sul,PR,41,411730,41021,21ª RS TELEMACO BORBA,2021-06-08,23,"",1696,2,30,1,"","",0
Sul,PR,41,411730,41021,21ª RS TELEMACO BORBA,2021-06-09,23,"",1699,3,30,0,"","",0
Sul,PR,41,411730,41021,21ª RS TELEMACO BORBA,2021-06-10,23,"",1717,18,30,0,"","",0
Sul,PR,41,411730,41021,21ª RS TELEMACO BORBA,2021-06-11,23,"",1741,24,30,0,"","",0
Sul,PR,41,411730,41021,21ª RS TELEMACO BORBA,2021-06-12,23,"",1802,61,30,0,"","",0
Sul,PR,41,411730,41021,21ª RS TELEMACO BORBA,2021-06-13,24,"",1804,2,30,0,"","",0
Sul,PR,41,411730,41021,21ª RS TELEMACO BORBA,2021-06-14,24,"",1807,3,30,0,"","",0
Sul,PR,41,411730,41021,21ª RS TELEMACO BORBA,2021-06-15,24,"",1811,4,30,0,"","",0
Sul,PR,41,411730,41021,21ª RS TELEMACO BORBA,2021-06-16,24,"",1823,12,30,0,"","",0
Sul,PR,41,411730,41021,21ª RS TELEMACO BORBA,2021-06-17,24,"",1828,5,30,0,"","",0
Sul,PR,41,411730,41021,21ª RS TELEMACO BORBA,2021-06-18,24,"",1843,15,30,0,"","",0
Sul,PR,41,411730,41021,21ª RS TELEMACO BORBA,2021-06-19,24,"",1861,18,30,0,"","",0
Sul,PR,41,411730,41021,21ª RS TELEMACO BORBA,2021-06-20,25,"",1879,18,30,0,"","",0
Sul,PR,41,411730,41021,21ª RS TELEMACO BORBA,2021-06-21,25,"",1914,35,30,0,"","",0
Sul,PR,41,411730,41021,21ª RS TELEMACO BORBA,2021-06-22,25,"",1934,20,30,0,"","",0
Sul,PR,41,411730,41021,21ª RS TELEMACO BORBA,2021-06-23,25,"",1964,30,30,0,"","",0
Sul,PR,41,411730,41021,21ª RS TELEMACO BORBA,2021-06-24,25,"",2003,39,30,0,"","",0
Sul,PR,41,411730,41021,21ª RS TELEMACO BORBA,2021-06-25,25,"",2050,47,30,0,"","",0
Sul,PR,41,411730,41021,21ª RS TELEMACO BORBA,2021-06-26,25,"",2064,14,30,0,"","",0
Sul,PR,41,411730,41021,21ª RS TELEMACO BORBA,2021-06-27,26,"",2077,13,30,0,"","",0
Sul,PR,41,411730,41021,21ª RS TELEMACO BORBA,2021-06-28,26,"",2100,23,30,0,"","",0
Sul,PR,41,411730,41021,21ª RS TELEMACO BORBA,2021-06-29,26,"",2113,13,30,0,"","",0
Sul,PR,41,411730,41021,21ª RS TELEMACO BORBA,2021-06-30,26,"",2122,9,30,0,"","",0
