Sul,PR,41,410700,41021,21ª RS TELEMACO BORBA,2021-07-01,26,"",1325,2,21,0,"","",0
Sul,PR,41,410700,41021,21ª RS TELEMACO BORBA,2021-07-02,26,"",1325,0,21,0,"","",0
Sul,PR,41,410700,41021,21ª RS TELEMACO BORBA,2021-07-03,26,"",1327,2,21,0,"","",0
Sul,PR,41,410700,41021,21ª RS TELEMACO BORBA,2021-07-04,27,"",1327,0,21,0,"","",0
Sul,PR,41,410700,41021,21ª RS TELEMACO BORBA,2021-07-05,27,"",1327,0,21,0,"","",0
Sul,PR,41,410700,41021,21ª RS TELEMACO BORBA,2021-07-06,27,"",1327,0,22,1,"","",0
