Sul,PR,41,411007,41021,21ª RS TELEMACO BORBA,2020-03-27,13,"",0,0,0,0,"","",0
Sul,PR,41,411007,41021,21ª RS TELEMACO BORBA,2020-03-28,13,"",0,0,0,0,"","",0
Sul,PR,41,411007,41021,21ª RS TELEMACO BORBA,2020-03-29,14,"",0,0,0,0,"","",0
Sul,PR,41,411007,41021,21ª RS TELEMACO BORBA,2020-03-30,14,"",0,0,0,0,"","",0
Sul,PR,41,411007,41021,21ª RS TELEMACO BORBA,2020-03-31,14,"",0,0,0,0,"","",0
Sul,PR,41,411007,41021,21ª RS TELEMACO BORBA,2020-04-01,14,"",0,0,0,0,"","",0
Sul,PR,41,411007,41021,21ª RS TELEMACO BORBA,2020-04-02,14,"",0,0,0,0,"","",0
Sul,PR,41,411007,41021,21ª RS TELEMACO BORBA,2020-04-03,14,"",0,0,0,0,"","",0
Sul,PR,41,411007,41021,21ª RS TELEMACO BORBA,2020-04-04,14,"",0,0,0,0,"","",0
Sul,PR,41,411007,41021,21ª RS TELEMACO BORBA,2020-04-05,15,"",0,0,0,0,"","",0
Sul,PR,41,411007,41021,21ª RS TELEMACO BORBA,2020-04-06,15,"",0,0,0,0,"","",0
Sul,PR,41,411007,41021,21ª RS TELEMACO BORBA,2020-04-07,15,"",0,0,0,0,"","",0
Sul,PR,41,411007,41021,21ª RS TELEMACO BORBA,2020-04-08,15,"",0,0,0,0,"","",0
Sul,PR,41,411007,41021,21ª RS TELEMACO BORBA,2020-04-09,15,"",0,0,0,0,"","",0
Sul,PR,41,411007,41021,21ª RS TELEMACO BORBA,2020-04-10,15,"",0,0,0,0,"","",0
Sul,PR,41,411007,41021,21ª RS TELEMACO BORBA,2020-04-11,15,"",0,0,0,0,"","",0
Sul,PR,41,411007,41021,21ª RS TELEMACO BORBA,2020-04-12,16,"",0,0,0,0,"","",0
Sul,PR,41,411007,41021,21ª RS TELEMACO BORBA,2020-04-13,16,"",0,0,0,0,"","",0
Sul,PR,41,411007,41021,21ª RS TELEMACO BORBA,2020-04-14,16,"",0,0,0,0,"","",0
Sul,PR,41,411007,41021,21ª RS TELEMACO BORBA,2020-04-15,16,"",0,0,0,0,"","",0
Sul,PR,41,411007,41021,21ª RS TELEMACO BORBA,2020-04-16,16,"",0,0,0,0,"","",0
Sul,PR,41,411007,41021,21ª RS TELEMACO BORBA,2020-04-17,16,"",0,0,0,0,"","",0
Sul,PR,41,411007,41021,21ª RS TELEMACO BORBA,2020-04-18,16,"",1,1,0,0,"","",0
Sul,PR,41,411007,41021,21ª RS TELEMACO BORBA,2020-04-19,17,"",1,0,0,0,"","",0
Sul,PR,41,411007,41021,21ª RS TELEMACO BORBA,2020-04-20,17,"",1,0,0,0,"","",0
Sul,PR,41,411007,41021,21ª RS TELEMACO BORBA,2020-04-21,17,"",1,0,0,0,"","",0
Sul,PR,41,411007,41021,21ª RS TELEMACO BORBA,2020-04-22,17,"",2,1,0,0,"","",0
Sul,PR,41,411007,41021,21ª RS TELEMACO BORBA,2020-04-23,17,"",2,0,0,0,"","",0
Sul,PR,41,411007,41021,21ª RS TELEMACO BORBA,2020-04-24,17,"",2,0,0,0,"","",0
Sul,PR,41,411007,41021,21ª RS TELEMACO BORBA,2020-04-25,17,"",2,0,0,0,"","",0
Sul,PR,41,411007,41021,21ª RS TELEMACO BORBA,2020-04-26,18,"",2,0,0,0,"","",0
Sul,PR,41,411007,41021,21ª RS TELEMACO BORBA,2020-04-27,18,"",2,0,0,0,"","",0
Sul,PR,41,411007,41021,21ª RS TELEMACO BORBA,2020-04-28,18,"",2,0,0,0,"","",0
Sul,PR,41,411007,41021,21ª RS TELEMACO BORBA,2020-04-29,18,"",2,0,0,0,"","",0
Sul,PR,41,411007,41021,21ª RS TELEMACO BORBA,2020-04-30,18,"",2,0,0,0,"","",0
Sul,PR,41,411007,41021,21ª RS TELEMACO BORBA,2020-05-01,18,"",2,0,0,0,"","",0
Sul,PR,41,411007,41021,21ª RS TELEMACO BORBA,2020-05-02,18,"",2,0,0,0,"","",0
Sul,PR,41,411007,41021,21ª RS TELEMACO BORBA,2020-05-03,19,"",2,0,0,0,"","",0
Sul,PR,41,411007,41021,21ª RS TELEMACO BORBA,2020-05-04,19,"",2,0,0,0,"","",0
Sul,PR,41,411007,41021,21ª RS TELEMACO BORBA,2020-05-05,19,"",2,0,0,0,"","",0
Sul,PR,41,411007,41021,21ª RS TELEMACO BORBA,2020-05-06,19,"",2,0,0,0,"","",0
Sul,PR,41,411007,41021,21ª RS TELEMACO BORBA,2020-05-07,19,"",2,0,0,0,"","",0
Sul,PR,41,411007,41021,21ª RS TELEMACO BORBA,2020-05-08,19,"",2,0,0,0,"","",0
Sul,PR,41,411007,41021,21ª RS TELEMACO BORBA,2020-05-09,19,"",2,0,0,0,"","",0
Sul,PR,41,411007,41021,21ª RS TELEMACO BORBA,2020-05-10,20,"",2,0,0,0,"","",0
Sul,PR,41,411007,41021,21ª RS TELEMACO BORBA,2020-05-11,20,"",2,0,0,0,"","",0
Sul,PR,41,411007,41021,21ª RS TELEMACO BORBA,2020-05-12,20,"",2,0,0,0,"","",0
Sul,PR,41,411007,41021,21ª RS TELEMACO BORBA,2020-05-13,20,"",2,0,0,0,"","",0
Sul,PR,41,411007,41021,21ª RS TELEMACO BORBA,2020-05-14,20,"",2,0,0,0,"","",0
Sul,PR,41,411007,41021,21ª RS TELEMACO BORBA,2020-05-15,20,"",2,0,0,0,"","",0
Sul,PR,41,411007,41021,21ª RS TELEMACO BORBA,2020-05-16,20,"",2,0,0,0,"","",0
Sul,PR,41,411007,41021,21ª RS TELEMACO BORBA,2020-05-17,21,"",2,0,0,0,"","",0
Sul,PR,41,411007,41021,21ª RS TELEMACO BORBA,2020-05-18,21,"",2,0,0,0,"","",0
Sul,PR,41,411007,41021,21ª RS TELEMACO BORBA,2020-05-19,21,"",2,0,0,0,"","",0
Sul,PR,41,411007,41021,21ª RS TELEMACO BORBA,2020-05-20,21,"",2,0,0,0,"","",0
Sul,PR,41,411007,41021,21ª RS TELEMACO BORBA,2020-05-21,21,"",2,0,0,0,"","",0
Sul,PR,41,411007,41021,21ª RS TELEMACO BORBA,2020-05-22,21,"",2,0,0,0,"","",0
Sul,PR,41,411007,41021,21ª RS TELEMACO BORBA,2020-05-23,21,"",2,0,0,0,"","",0
Sul,PR,41,411007,41021,21ª RS TELEMACO BORBA,2020-05-24,22,"",2,0,0,0,"","",0
Sul,PR,41,411007,41021,21ª RS TELEMACO BORBA,2020-05-25,22,"",2,0,0,0,"","",0
Sul,PR,41,411007,41021,21ª RS TELEMACO BORBA,2020-05-26,22,"",2,0,0,0,"","",0
Sul,PR,41,411007,41021,21ª RS TELEMACO BORBA,2020-05-27,22,"",2,0,0,0,"","",0
Sul,PR,41,411007,41021,21ª RS TELEMACO BORBA,2020-05-28,22,"",2,0,0,0,"","",0
Sul,PR,41,411007,41021,21ª RS TELEMACO BORBA,2020-05-29,22,"",2,0,0,0,"","",0
Sul,PR,41,411007,41021,21ª RS TELEMACO BORBA,2020-05-30,22,"",2,0,0,0,"","",0
Sul,PR,41,411007,41021,21ª RS TELEMACO BORBA,2020-05-31,23,"",2,0,0,0,"","",0
Sul,PR,41,411007,41021,21ª RS TELEMACO BORBA,2020-06-01,23,"",3,1,0,0,"","",0
Sul,PR,41,411007,41021,21ª RS TELEMACO BORBA,2020-06-02,23,"",4,1,0,0,"","",0
Sul,PR,41,411007,41021,21ª RS TELEMACO BORBA,2020-06-03,23,"",4,0,0,0,"","",0
Sul,PR,41,411007,41021,21ª RS TELEMACO BORBA,2020-06-04,23,"",5,1,0,0,"","",0
Sul,PR,41,411007,41021,21ª RS TELEMACO BORBA,2020-06-05,23,"",7,2,0,0,"","",0
Sul,PR,41,411007,41021,21ª RS TELEMACO BORBA,2020-06-06,23,"",8,1,0,0,"","",0
Sul,PR,41,411007,41021,21ª RS TELEMACO BORBA,2020-06-07,24,"",11,3,0,0,"","",0
Sul,PR,41,411007,41021,21ª RS TELEMACO BORBA,2020-06-08,24,"",11,0,0,0,"","",0
Sul,PR,41,411007,41021,21ª RS TELEMACO BORBA,2020-06-09,24,"",11,0,0,0,"","",0
Sul,PR,41,411007,41021,21ª RS TELEMACO BORBA,2020-06-10,24,"",17,6,1,1,"","",0
Sul,PR,41,411007,41021,21ª RS TELEMACO BORBA,2020-06-11,24,"",19,2,1,0,"","",0
Sul,PR,41,411007,41021,21ª RS TELEMACO BORBA,2020-06-12,24,"",19,0,1,0,"","",0
Sul,PR,41,411007,41021,21ª RS TELEMACO BORBA,2020-06-13,24,"",20,1,2,1,"","",0
Sul,PR,41,411007,41021,21ª RS TELEMACO BORBA,2020-06-14,25,"",25,5,2,0,"","",0
Sul,PR,41,411007,41021,21ª RS TELEMACO BORBA,2020-06-15,25,"",25,0,2,0,"","",0
Sul,PR,41,411007,41021,21ª RS TELEMACO BORBA,2020-06-16,25,"",25,0,2,0,"","",0
Sul,PR,41,411007,41021,21ª RS TELEMACO BORBA,2020-06-17,25,"",25,0,2,0,"","",0
Sul,PR,41,411007,41021,21ª RS TELEMACO BORBA,2020-06-18,25,"",25,0,2,0,"","",0
Sul,PR,41,411007,41021,21ª RS TELEMACO BORBA,2020-06-19,25,"",25,0,2,0,"","",0
Sul,PR,41,411007,41021,21ª RS TELEMACO BORBA,2020-06-20,25,"",25,0,2,0,"","",0
Sul,PR,41,411007,41021,21ª RS TELEMACO BORBA,2020-06-21,26,"",25,0,2,0,"","",0
Sul,PR,41,411007,41021,21ª RS TELEMACO BORBA,2020-06-22,26,"",26,1,2,0,"","",0
Sul,PR,41,411007,41021,21ª RS TELEMACO BORBA,2020-06-23,26,"",26,0,2,0,"","",0
Sul,PR,41,411007,41021,21ª RS TELEMACO BORBA,2020-06-24,26,"",27,1,2,0,"","",0
Sul,PR,41,411007,41021,21ª RS TELEMACO BORBA,2020-06-25,26,"",27,0,2,0,"","",0
Sul,PR,41,411007,41021,21ª RS TELEMACO BORBA,2020-06-26,26,"",27,0,2,0,"","",0
Sul,PR,41,411007,41021,21ª RS TELEMACO BORBA,2020-06-27,26,"",27,0,2,0,"","",0
Sul,PR,41,411007,41021,21ª RS TELEMACO BORBA,2020-06-28,27,"",27,0,2,0,"","",0
Sul,PR,41,411007,41021,21ª RS TELEMACO BORBA,2020-06-29,27,"",27,0,2,0,"","",0
Sul,PR,41,411007,41021,21ª RS TELEMACO BORBA,2020-06-30,27,"",27,0,2,0,"","",0
Sul,PR,41,411007,41021,21ª RS TELEMACO BORBA,2020-07-01,27,"",27,0,2,0,"","",0
Sul,PR,41,411007,41021,21ª RS TELEMACO BORBA,2020-07-02,27,"",29,2,2,0,"","",0
Sul,PR,41,411007,41021,21ª RS TELEMACO BORBA,2020-07-03,27,"",33,4,2,0,"","",0
Sul,PR,41,411007,41021,21ª RS TELEMACO BORBA,2020-07-04,27,"",33,0,2,0,"","",0
Sul,PR,41,411007,41021,21ª RS TELEMACO BORBA,2020-07-05,28,"",33,0,2,0,"","",0
Sul,PR,41,411007,41021,21ª RS TELEMACO BORBA,2020-07-06,28,"",33,0,2,0,"","",0
Sul,PR,41,411007,41021,21ª RS TELEMACO BORBA,2020-07-07,28,"",40,7,2,0,"","",0
Sul,PR,41,411007,41021,21ª RS TELEMACO BORBA,2020-07-08,28,"",40,0,2,0,"","",0
Sul,PR,41,411007,41021,21ª RS TELEMACO BORBA,2020-07-09,28,"",45,5,2,0,"","",0
Sul,PR,41,411007,41021,21ª RS TELEMACO BORBA,2020-07-10,28,"",46,1,2,0,"","",0
Sul,PR,41,411007,41021,21ª RS TELEMACO BORBA,2020-07-11,28,"",51,5,2,0,"","",0
Sul,PR,41,411007,41021,21ª RS TELEMACO BORBA,2020-07-12,29,"",52,1,2,0,"","",0
Sul,PR,41,411007,41021,21ª RS TELEMACO BORBA,2020-07-13,29,"",52,0,2,0,"","",0
Sul,PR,41,411007,41021,21ª RS TELEMACO BORBA,2020-07-14,29,"",57,5,2,0,"","",0
Sul,PR,41,411007,41021,21ª RS TELEMACO BORBA,2020-07-15,29,"",57,0,2,0,"","",0
Sul,PR,41,411007,41021,21ª RS TELEMACO BORBA,2020-07-16,29,"",57,0,2,0,"","",0
Sul,PR,41,411007,41021,21ª RS TELEMACO BORBA,2020-07-17,29,"",63,6,2,0,"","",0
Sul,PR,41,411007,41021,21ª RS TELEMACO BORBA,2020-07-18,29,"",78,15,2,0,"","",0
Sul,PR,41,411007,41021,21ª RS TELEMACO BORBA,2020-07-19,30,"",78,0,2,0,"","",0
Sul,PR,41,411007,41021,21ª RS TELEMACO BORBA,2020-07-20,30,"",88,10,2,0,"","",0
Sul,PR,41,411007,41021,21ª RS TELEMACO BORBA,2020-07-21,30,"",93,5,2,0,"","",0
Sul,PR,41,411007,41021,21ª RS TELEMACO BORBA,2020-07-22,30,"",96,3,2,0,"","",0
Sul,PR,41,411007,41021,21ª RS TELEMACO BORBA,2020-07-23,30,"",97,1,2,0,"","",0
Sul,PR,41,411007,41021,21ª RS TELEMACO BORBA,2020-07-24,30,"",98,1,2,0,"","",0
Sul,PR,41,411007,41021,21ª RS TELEMACO BORBA,2020-07-25,30,"",100,2,2,0,"","",0
Sul,PR,41,411007,41021,21ª RS TELEMACO BORBA,2020-07-26,31,"",111,11,2,0,"","",0
Sul,PR,41,411007,41021,21ª RS TELEMACO BORBA,2020-07-27,31,"",111,0,2,0,"","",0
Sul,PR,41,411007,41021,21ª RS TELEMACO BORBA,2020-07-28,31,"",133,22,2,0,"","",0
Sul,PR,41,411007,41021,21ª RS TELEMACO BORBA,2020-07-29,31,"",133,0,2,0,"","",0
Sul,PR,41,411007,41021,21ª RS TELEMACO BORBA,2020-07-30,31,"",139,6,3,1,"","",0
Sul,PR,41,411007,41021,21ª RS TELEMACO BORBA,2020-07-31,31,"",139,0,3,0,"","",0
