Sul,PR,41,411730,41021,21ª RS TELEMACO BORBA,2021-07-01,26,"",2143,21,30,0,"","",0
Sul,PR,41,411730,41021,21ª RS TELEMACO BORBA,2021-07-02,26,"",2149,6,30,0,"","",0
Sul,PR,41,411730,41021,21ª RS TELEMACO BORBA,2021-07-03,26,"",2152,3,30,0,"","",0
Sul,PR,41,411730,41021,21ª RS TELEMACO BORBA,2021-07-04,27,"",2152,0,30,0,"","",0
Sul,PR,41,411730,41021,21ª RS TELEMACO BORBA,2021-07-05,27,"",2154,2,30,0,"","",0
Sul,PR,41,411730,41021,21ª RS TELEMACO BORBA,2021-07-06,27,"",2157,3,32,2,"","",0
