Sul,PR,41,412750,41021,21ª RS TELEMACO BORBA,2021-07-01,26,"",2508,4,78,0,"","",0
Sul,PR,41,412750,41021,21ª RS TELEMACO BORBA,2021-07-02,26,"",2513,5,78,0,"","",0
Sul,PR,41,412750,41021,21ª RS TELEMACO BORBA,2021-07-03,26,"",2515,2,78,0,"","",0
Sul,PR,41,412750,41021,21ª RS TELEMACO BORBA,2021-07-04,27,"",2515,0,78,0,"","",0
Sul,PR,41,412750,41021,21ª RS TELEMACO BORBA,2021-07-05,27,"",2525,10,78,0,"","",0
Sul,PR,41,412750,41021,21ª RS TELEMACO BORBA,2021-07-06,27,"",2529,4,78,0,"","",0
