Sul,PR,41,412710,41021,21ª RS TELEMACO BORBA,2021-07-01,26,"",15322,140,322,3,"","",0
Sul,PR,41,412710,41021,21ª RS TELEMACO BORBA,2021-07-02,26,"",15364,42,324,2,"","",0
Sul,PR,41,412710,41021,21ª RS TELEMACO BORBA,2021-07-03,26,"",15418,54,329,5,"","",0
Sul,PR,41,412710,41021,21ª RS TELEMACO BORBA,2021-07-04,27,"",15429,11,331,2,"","",0
Sul,PR,41,412710,41021,21ª RS TELEMACO BORBA,2021-07-05,27,"",15451,22,333,2,"","",0
Sul,PR,41,412710,41021,21ª RS TELEMACO BORBA,2021-07-06,27,"",15490,39,336,3,"","",0
