Sul,PR,41,411730,41021,21ª RS TELEMACO BORBA,2020-08-01,31,"",85,4,3,0,"","",0
Sul,PR,41,411730,41021,21ª RS TELEMACO BORBA,2020-08-02,32,"",101,16,3,0,"","",0
Sul,PR,41,411730,41021,21ª RS TELEMACO BORBA,2020-08-03,32,"",112,11,3,0,"","",0
Sul,PR,41,411730,41021,21ª RS TELEMACO BORBA,2020-08-04,32,"",121,9,4,1,"","",0
Sul,PR,41,411730,41021,21ª RS TELEMACO BORBA,2020-08-05,32,"",147,26,4,0,"","",0
Sul,PR,41,411730,41021,21ª RS TELEMACO BORBA,2020-08-06,32,"",147,0,4,0,"","",0
Sul,PR,41,411730,41021,21ª RS TELEMACO BORBA,2020-08-07,32,"",156,9,4,0,"","",0
Sul,PR,41,411730,41021,21ª RS TELEMACO BORBA,2020-08-08,32,"",156,0,4,0,"","",0
Sul,PR,41,411730,41021,21ª RS TELEMACO BORBA,2020-08-09,33,"",161,5,5,1,"","",0
Sul,PR,41,411730,41021,21ª RS TELEMACO BORBA,2020-08-10,33,"",174,13,5,0,"","",0
Sul,PR,41,411730,41021,21ª RS TELEMACO BORBA,2020-08-11,33,"",182,8,5,0,"","",0
Sul,PR,41,411730,41021,21ª RS TELEMACO BORBA,2020-08-12,33,"",188,6,5,0,"","",0
Sul,PR,41,411730,41021,21ª RS TELEMACO BORBA,2020-08-13,33,"",189,1,5,0,"","",0
Sul,PR,41,411730,41021,21ª RS TELEMACO BORBA,2020-08-14,33,"",198,9,7,2,"","",0
Sul,PR,41,411730,41021,21ª RS TELEMACO BORBA,2020-08-15,33,"",207,9,8,1,"","",0
Sul,PR,41,411730,41021,21ª RS TELEMACO BORBA,2020-08-16,34,"",215,8,8,0,"","",0
Sul,PR,41,411730,41021,21ª RS TELEMACO BORBA,2020-08-17,34,"",238,23,8,0,"","",0
Sul,PR,41,411730,41021,21ª RS TELEMACO BORBA,2020-08-18,34,"",250,12,8,0,"","",0
Sul,PR,41,411730,41021,21ª RS TELEMACO BORBA,2020-08-19,34,"",251,1,8,0,"","",0
Sul,PR,41,411730,41021,21ª RS TELEMACO BORBA,2020-08-20,34,"",263,12,8,0,"","",0
Sul,PR,41,411730,41021,21ª RS TELEMACO BORBA,2020-08-21,34,"",274,11,8,0,"","",0
Sul,PR,41,411730,41021,21ª RS TELEMACO BORBA,2020-08-22,34,"",285,11,8,0,"","",0
Sul,PR,41,411730,41021,21ª RS TELEMACO BORBA,2020-08-23,35,"",286,1,8,0,"","",0
Sul,PR,41,411730,41021,21ª RS TELEMACO BORBA,2020-08-24,35,"",298,12,8,0,"","",0
Sul,PR,41,411730,41021,21ª RS TELEMACO BORBA,2020-08-25,35,"",298,0,8,0,"","",0
Sul,PR,41,411730,41021,21ª RS TELEMACO BORBA,2020-08-26,35,"",297,-1,8,0,"","",0
Sul,PR,41,411730,41021,21ª RS TELEMACO BORBA,2020-08-27,35,"",310,13,8,0,"","",0
Sul,PR,41,411730,41021,21ª RS TELEMACO BORBA,2020-08-28,35,"",325,15,8,0,"","",0
Sul,PR,41,411730,41021,21ª RS TELEMACO BORBA,2020-08-29,35,"",327,2,8,0,"","",0
Sul,PR,41,411730,41021,21ª RS TELEMACO BORBA,2020-08-30,36,"",346,19,8,0,"","",0
Sul,PR,41,411730,41021,21ª RS TELEMACO BORBA,2020-08-31,36,"",348,2,8,0,"","",0
Sul,PR,41,411730,41021,21ª RS TELEMACO BORBA,2020-09-01,36,"",353,5,8,0,"","",0
Sul,PR,41,411730,41021,21ª RS TELEMACO BORBA,2020-09-02,36,"",355,2,9,1,"","",0
Sul,PR,41,411730,41021,21ª RS TELEMACO BORBA,2020-09-03,36,"",364,9,9,0,"","",0
Sul,PR,41,411730,41021,21ª RS TELEMACO BORBA,2020-09-04,36,"",368,4,9,0,"","",0
Sul,PR,41,411730,41021,21ª RS TELEMACO BORBA,2020-09-05,36,"",375,7,9,0,"","",0
Sul,PR,41,411730,41021,21ª RS TELEMACO BORBA,2020-09-06,37,"",379,4,9,0,"","",0
Sul,PR,41,411730,41021,21ª RS TELEMACO BORBA,2020-09-07,37,"",380,1,9,0,"","",0
Sul,PR,41,411730,41021,21ª RS TELEMACO BORBA,2020-09-08,37,"",381,1,9,0,"","",0
Sul,PR,41,411730,41021,21ª RS TELEMACO BORBA,2020-09-09,37,"",384,3,9,0,"","",0
Sul,PR,41,411730,41021,21ª RS TELEMACO BORBA,2020-09-10,37,"",384,0,9,0,"","",0
Sul,PR,41,411730,41021,21ª RS TELEMACO BORBA,2020-09-11,37,"",391,7,9,0,"","",0
Sul,PR,41,411730,41021,21ª RS TELEMACO BORBA,2020-09-12,37,"",398,7,9,0,"","",0
Sul,PR,41,411730,41021,21ª RS TELEMACO BORBA,2020-09-13,38,"",401,3,9,0,"","",0
Sul,PR,41,411730,41021,21ª RS TELEMACO BORBA,2020-09-14,38,"",401,0,9,0,"","",0
Sul,PR,41,411730,41021,21ª RS TELEMACO BORBA,2020-09-15,38,"",402,1,9,0,"","",0
Sul,PR,41,411730,41021,21ª RS TELEMACO BORBA,2020-09-16,38,"",406,4,9,0,"","",0
Sul,PR,41,411730,41021,21ª RS TELEMACO BORBA,2020-09-17,38,"",406,0,9,0,"","",0
Sul,PR,41,411730,41021,21ª RS TELEMACO BORBA,2020-09-18,38,"",411,5,9,0,"","",0
Sul,PR,41,411730,41021,21ª RS TELEMACO BORBA,2020-09-19,38,"",411,0,9,0,"","",0
Sul,PR,41,411730,41021,21ª RS TELEMACO BORBA,2020-09-20,39,"",413,2,9,0,"","",0
Sul,PR,41,411730,41021,21ª RS TELEMACO BORBA,2020-09-21,39,"",414,1,9,0,"","",0
Sul,PR,41,411730,41021,21ª RS TELEMACO BORBA,2020-09-22,39,"",416,2,9,0,"","",0
Sul,PR,41,411730,41021,21ª RS TELEMACO BORBA,2020-09-23,39,"",417,1,9,0,"","",0
Sul,PR,41,411730,41021,21ª RS TELEMACO BORBA,2020-09-24,39,"",418,1,9,0,"","",0
Sul,PR,41,411730,41021,21ª RS TELEMACO BORBA,2020-09-25,39,"",428,10,9,0,"","",0
Sul,PR,41,411730,41021,21ª RS TELEMACO BORBA,2020-09-26,39,"",432,4,9,0,"","",0
Sul,PR,41,411730,41021,21ª RS TELEMACO BORBA,2020-09-27,40,"",436,4,9,0,"","",0
Sul,PR,41,411730,41021,21ª RS TELEMACO BORBA,2020-09-28,40,"",444,8,9,0,"","",0
Sul,PR,41,411730,41021,21ª RS TELEMACO BORBA,2020-09-29,40,"",450,6,9,0,"","",0
Sul,PR,41,411730,41021,21ª RS TELEMACO BORBA,2020-09-30,40,"",452,2,9,0,"","",0
Sul,PR,41,411730,41021,21ª RS TELEMACO BORBA,2020-10-01,40,"",455,3,9,0,"","",0
Sul,PR,41,411730,41021,21ª RS TELEMACO BORBA,2020-10-02,40,"",457,2,9,0,"","",0
Sul,PR,41,411730,41021,21ª RS TELEMACO BORBA,2020-10-03,40,"",461,4,9,0,"","",0
Sul,PR,41,411730,41021,21ª RS TELEMACO BORBA,2020-10-04,41,"",461,0,10,1,"","",0
Sul,PR,41,411730,41021,21ª RS TELEMACO BORBA,2020-10-05,41,"",461,0,10,0,"","",0
Sul,PR,41,411730,41021,21ª RS TELEMACO BORBA,2020-10-06,41,"",461,0,10,0,"","",0
Sul,PR,41,411730,41021,21ª RS TELEMACO BORBA,2020-10-07,41,"",461,0,10,0,"","",0
Sul,PR,41,411730,41021,21ª RS TELEMACO BORBA,2020-10-08,41,"",464,3,10,0,"","",0
Sul,PR,41,411730,41021,21ª RS TELEMACO BORBA,2020-10-09,41,"",466,2,10,0,"","",0
Sul,PR,41,411730,41021,21ª RS TELEMACO BORBA,2020-10-10,41,"",471,5,10,0,"","",0
Sul,PR,41,411730,41021,21ª RS TELEMACO BORBA,2020-10-11,42,"",471,0,10,0,"","",0
Sul,PR,41,411730,41021,21ª RS TELEMACO BORBA,2020-10-12,42,"",478,7,10,0,"","",0
Sul,PR,41,411730,41021,21ª RS TELEMACO BORBA,2020-10-13,42,"",478,0,11,1,"","",0
Sul,PR,41,411730,41021,21ª RS TELEMACO BORBA,2020-10-14,42,"",479,1,11,0,"","",0
Sul,PR,41,411730,41021,21ª RS TELEMACO BORBA,2020-10-15,42,"",482,3,12,1,"","",0
Sul,PR,41,411730,41021,21ª RS TELEMACO BORBA,2020-10-16,42,"",485,3,12,0,"","",0
Sul,PR,41,411730,41021,21ª RS TELEMACO BORBA,2020-10-17,42,"",486,1,12,0,"","",0
Sul,PR,41,411730,41021,21ª RS TELEMACO BORBA,2020-10-18,43,"",486,0,12,0,"","",0
Sul,PR,41,411730,41021,21ª RS TELEMACO BORBA,2020-10-19,43,"",487,1,12,0,"","",0
Sul,PR,41,411730,41021,21ª RS TELEMACO BORBA,2020-10-20,43,"",493,6,12,0,"","",0
Sul,PR,41,411730,41021,21ª RS TELEMACO BORBA,2020-10-21,43,"",498,5,12,0,"","",0
Sul,PR,41,411730,41021,21ª RS TELEMACO BORBA,2020-10-22,43,"",506,8,12,0,"","",0
Sul,PR,41,411730,41021,21ª RS TELEMACO BORBA,2020-10-23,43,"",508,2,12,0,"","",0
Sul,PR,41,411730,41021,21ª RS TELEMACO BORBA,2020-10-24,43,"",510,2,12,0,"","",0
Sul,PR,41,411730,41021,21ª RS TELEMACO BORBA,2020-10-25,44,"",510,0,12,0,"","",0
Sul,PR,41,411730,41021,21ª RS TELEMACO BORBA,2020-10-26,44,"",512,2,12,0,"","",0
Sul,PR,41,411730,41021,21ª RS TELEMACO BORBA,2020-10-27,44,"",514,2,12,0,"","",0
Sul,PR,41,411730,41021,21ª RS TELEMACO BORBA,2020-10-28,44,"",520,6,12,0,"","",0
Sul,PR,41,411730,41021,21ª RS TELEMACO BORBA,2020-10-29,44,"",521,1,12,0,"","",0
Sul,PR,41,411730,41021,21ª RS TELEMACO BORBA,2020-10-30,44,"",524,3,12,0,"","",0
Sul,PR,41,411730,41021,21ª RS TELEMACO BORBA,2020-10-31,44,"",526,2,12,0,"","",0
Sul,PR,41,411730,41021,21ª RS TELEMACO BORBA,2020-11-01,45,"",529,3,12,0,"","",0
Sul,PR,41,411730,41021,21ª RS TELEMACO BORBA,2020-11-02,45,"",529,0,12,0,"","",0
Sul,PR,41,411730,41021,21ª RS TELEMACO BORBA,2020-11-03,45,"",529,0,12,0,"","",0
Sul,PR,41,411730,41021,21ª RS TELEMACO BORBA,2020-11-04,45,"",530,1,12,0,"","",0
Sul,PR,41,411730,41021,21ª RS TELEMACO BORBA,2020-11-05,45,"",530,0,12,0,"","",0
Sul,PR,41,411730,41021,21ª RS TELEMACO BORBA,2020-11-06,45,"",531,1,12,0,"","",0
Sul,PR,41,411730,41021,21ª RS TELEMACO BORBA,2020-11-07,45,"",533,2,12,0,"","",0
Sul,PR,41,411730,41021,21ª RS TELEMACO BORBA,2020-11-08,46,"",533,0,12,0,"","",0
Sul,PR,41,411730,41021,21ª RS TELEMACO BORBA,2020-11-09,46,"",536,3,12,0,"","",0
Sul,PR,41,411730,41021,21ª RS TELEMACO BORBA,2020-11-10,46,"",537,1,12,0,"","",0
Sul,PR,41,411730,41021,21ª RS TELEMACO BORBA,2020-11-11,46,"",539,2,12,0,"","",0
Sul,PR,41,411730,41021,21ª RS TELEMACO BORBA,2020-11-12,46,"",540,1,12,0,"","",0
Sul,PR,41,411730,41021,21ª RS TELEMACO BORBA,2020-11-13,46,"",540,0,12,0,"","",0
Sul,PR,41,411730,41021,21ª RS TELEMACO BORBA,2020-11-14,46,"",558,18,12,0,"","",0
Sul,PR,41,411730,41021,21ª RS TELEMACO BORBA,2020-11-15,47,"",558,0,12,0,"","",0
Sul,PR,41,411730,41021,21ª RS TELEMACO BORBA,2020-11-16,47,"",558,0,12,0,"","",0
Sul,PR,41,411730,41021,21ª RS TELEMACO BORBA,2020-11-17,47,"",562,4,12,0,"","",0
Sul,PR,41,411730,41021,21ª RS TELEMACO BORBA,2020-11-18,47,"",562,0,12,0,"","",0
Sul,PR,41,411730,41021,21ª RS TELEMACO BORBA,2020-11-19,47,"",562,0,12,0,"","",0
Sul,PR,41,411730,41021,21ª RS TELEMACO BORBA,2020-11-20,47,"",562,0,12,0,"","",0
Sul,PR,41,411730,41021,21ª RS TELEMACO BORBA,2020-11-21,47,"",562,0,12,0,"","",0
Sul,PR,41,411730,41021,21ª RS TELEMACO BORBA,2020-11-22,48,"",562,0,12,0,"","",0
Sul,PR,41,411730,41021,21ª RS TELEMACO BORBA,2020-11-23,48,"",563,1,12,0,"","",0
Sul,PR,41,411730,41021,21ª RS TELEMACO BORBA,2020-11-24,48,"",565,2,12,0,"","",0
Sul,PR,41,411730,41021,21ª RS TELEMACO BORBA,2020-11-25,48,"",567,2,12,0,"","",0
Sul,PR,41,411730,41021,21ª RS TELEMACO BORBA,2020-11-26,48,"",572,5,12,0,"","",0
Sul,PR,41,411730,41021,21ª RS TELEMACO BORBA,2020-11-27,48,"",572,0,12,0,"","",0
Sul,PR,41,411730,41021,21ª RS TELEMACO BORBA,2020-11-28,48,"",575,3,12,0,"","",0
Sul,PR,41,411730,41021,21ª RS TELEMACO BORBA,2020-11-29,49,"",575,0,12,0,"","",0
Sul,PR,41,411730,41021,21ª RS TELEMACO BORBA,2020-11-30,49,"",578,3,12,0,"","",0
Sul,PR,41,411730,41021,21ª RS TELEMACO BORBA,2020-12-01,49,"",580,2,12,0,"","",0
Sul,PR,41,411730,41021,21ª RS TELEMACO BORBA,2020-12-02,49,"",580,0,12,0,"","",0
Sul,PR,41,411730,41021,21ª RS TELEMACO BORBA,2020-12-03,49,"",583,3,12,0,"","",0
Sul,PR,41,411730,41021,21ª RS TELEMACO BORBA,2020-12-04,49,"",587,4,12,0,"","",0
Sul,PR,41,411730,41021,21ª RS TELEMACO BORBA,2020-12-05,49,"",588,1,12,0,"","",0
Sul,PR,41,411730,41021,21ª RS TELEMACO BORBA,2020-12-06,50,"",589,1,12,0,"","",0
Sul,PR,41,411730,41021,21ª RS TELEMACO BORBA,2020-12-07,50,"",589,0,12,0,"","",0
Sul,PR,41,411730,41021,21ª RS TELEMACO BORBA,2020-12-08,50,"",594,5,12,0,"","",0
Sul,PR,41,411730,41021,21ª RS TELEMACO BORBA,2020-12-09,50,"",598,4,12,0,"","",0
Sul,PR,41,411730,41021,21ª RS TELEMACO BORBA,2020-12-10,50,"",600,2,12,0,"","",0
Sul,PR,41,411730,41021,21ª RS TELEMACO BORBA,2020-12-11,50,"",607,7,12,0,"","",0
Sul,PR,41,411730,41021,21ª RS TELEMACO BORBA,2020-12-12,50,"",626,19,12,0,"","",0
Sul,PR,41,411730,41021,21ª RS TELEMACO BORBA,2020-12-13,51,"",627,1,12,0,"","",0
Sul,PR,41,411730,41021,21ª RS TELEMACO BORBA,2020-12-14,51,"",627,0,12,0,"","",0
Sul,PR,41,411730,41021,21ª RS TELEMACO BORBA,2020-12-15,51,"",632,5,12,0,"","",0
Sul,PR,41,411730,41021,21ª RS TELEMACO BORBA,2020-12-16,51,"",648,16,12,0,"","",0
Sul,PR,41,411730,41021,21ª RS TELEMACO BORBA,2020-12-17,51,"",667,19,12,0,"","",0
Sul,PR,41,411730,41021,21ª RS TELEMACO BORBA,2020-12-18,51,"",667,0,12,0,"","",0
Sul,PR,41,411730,41021,21ª RS TELEMACO BORBA,2020-12-19,51,"",672,5,12,0,"","",0
Sul,PR,41,411730,41021,21ª RS TELEMACO BORBA,2020-12-20,52,"",672,0,12,0,"","",0
Sul,PR,41,411730,41021,21ª RS TELEMACO BORBA,2020-12-21,52,"",672,0,12,0,"","",0
Sul,PR,41,411730,41021,21ª RS TELEMACO BORBA,2020-12-22,52,"",679,7,12,0,"","",0
Sul,PR,41,411730,41021,21ª RS TELEMACO BORBA,2020-12-23,52,"",682,3,13,1,"","",0
Sul,PR,41,411730,41021,21ª RS TELEMACO BORBA,2020-12-24,52,"",684,2,13,0,"","",0
Sul,PR,41,411730,41021,21ª RS TELEMACO BORBA,2020-12-25,52,"",684,0,13,0,"","",0
Sul,PR,41,411730,41021,21ª RS TELEMACO BORBA,2020-12-26,52,"",684,0,13,0,"","",0
Sul,PR,41,411730,41021,21ª RS TELEMACO BORBA,2020-12-27,53,"",684,0,13,0,"","",0
Sul,PR,41,411730,41021,21ª RS TELEMACO BORBA,2020-12-28,53,"",686,2,13,0,"","",0
Sul,PR,41,411730,41021,21ª RS TELEMACO BORBA,2020-12-29,53,"",709,23,13,0,"","",0
Sul,PR,41,411730,41021,21ª RS TELEMACO BORBA,2020-12-30,53,"",710,1,13,0,"","",0
Sul,PR,41,411730,41021,21ª RS TELEMACO BORBA,2020-12-31,53,"",712,2,13,0,"","",0
