Sul,PR,41,412710,41021,21ª RS TELEMACO BORBA,2020-08-01,31,"",592,36,10,0,"","",0
Sul,PR,41,412710,41021,21ª RS TELEMACO BORBA,2020-08-02,32,"",620,28,11,1,"","",0
Sul,PR,41,412710,41021,21ª RS TELEMACO BORBA,2020-08-03,32,"",645,25,11,0,"","",0
Sul,PR,41,412710,41021,21ª RS TELEMACO BORBA,2020-08-04,32,"",673,28,11,0,"","",0
Sul,PR,41,412710,41021,21ª RS TELEMACO BORBA,2020-08-05,32,"",720,47,11,0,"","",0
Sul,PR,41,412710,41021,21ª RS TELEMACO BORBA,2020-08-06,32,"",744,24,11,0,"","",0
Sul,PR,41,412710,41021,21ª RS TELEMACO BORBA,2020-08-07,32,"",773,29,11,0,"","",0
Sul,PR,41,412710,41021,21ª RS TELEMACO BORBA,2020-08-08,32,"",773,0,11,0,"","",0
Sul,PR,41,412710,41021,21ª RS TELEMACO BORBA,2020-08-09,33,"",794,21,12,1,"","",0
Sul,PR,41,412710,41021,21ª RS TELEMACO BORBA,2020-08-10,33,"",866,72,13,1,"","",0
Sul,PR,41,412710,41021,21ª RS TELEMACO BORBA,2020-08-11,33,"",951,85,13,0,"","",0
Sul,PR,41,412710,41021,21ª RS TELEMACO BORBA,2020-08-12,33,"",1001,50,17,4,"","",0
Sul,PR,41,412710,41021,21ª RS TELEMACO BORBA,2020-08-13,33,"",1031,30,18,1,"","",0
Sul,PR,41,412710,41021,21ª RS TELEMACO BORBA,2020-08-14,33,"",1068,37,19,1,"","",0
Sul,PR,41,412710,41021,21ª RS TELEMACO BORBA,2020-08-15,33,"",1118,50,19,0,"","",0
Sul,PR,41,412710,41021,21ª RS TELEMACO BORBA,2020-08-16,34,"",1150,32,21,2,"","",0
Sul,PR,41,412710,41021,21ª RS TELEMACO BORBA,2020-08-17,34,"",1173,23,21,0,"","",0
Sul,PR,41,412710,41021,21ª RS TELEMACO BORBA,2020-08-18,34,"",1237,64,21,0,"","",0
Sul,PR,41,412710,41021,21ª RS TELEMACO BORBA,2020-08-19,34,"",1277,40,22,1,"","",0
Sul,PR,41,412710,41021,21ª RS TELEMACO BORBA,2020-08-20,34,"",1335,58,22,0,"","",0
Sul,PR,41,412710,41021,21ª RS TELEMACO BORBA,2020-08-21,34,"",1386,51,22,0,"","",0
Sul,PR,41,412710,41021,21ª RS TELEMACO BORBA,2020-08-22,34,"",1440,54,22,0,"","",0
Sul,PR,41,412710,41021,21ª RS TELEMACO BORBA,2020-08-23,35,"",1476,36,22,0,"","",0
Sul,PR,41,412710,41021,21ª RS TELEMACO BORBA,2020-08-24,35,"",1565,89,24,2,"","",0
Sul,PR,41,412710,41021,21ª RS TELEMACO BORBA,2020-08-25,35,"",1574,9,24,0,"","",0
Sul,PR,41,412710,41021,21ª RS TELEMACO BORBA,2020-08-26,35,"",1587,13,25,1,"","",0
Sul,PR,41,412710,41021,21ª RS TELEMACO BORBA,2020-08-27,35,"",1632,45,25,0,"","",0
Sul,PR,41,412710,41021,21ª RS TELEMACO BORBA,2020-08-28,35,"",1665,33,26,1,"","",0
Sul,PR,41,412710,41021,21ª RS TELEMACO BORBA,2020-08-29,35,"",1687,22,30,4,"","",0
Sul,PR,41,412710,41021,21ª RS TELEMACO BORBA,2020-08-30,36,"",1701,14,30,0,"","",0
Sul,PR,41,412710,41021,21ª RS TELEMACO BORBA,2020-08-31,36,"",1726,25,30,0,"","",0
Sul,PR,41,412710,41021,21ª RS TELEMACO BORBA,2020-09-01,36,"",1738,12,32,2,"","",0
Sul,PR,41,412710,41021,21ª RS TELEMACO BORBA,2020-09-02,36,"",1742,4,32,0,"","",0
Sul,PR,41,412710,41021,21ª RS TELEMACO BORBA,2020-09-03,36,"",1800,58,33,1,"","",0
Sul,PR,41,412710,41021,21ª RS TELEMACO BORBA,2020-09-04,36,"",1826,26,33,0,"","",0
Sul,PR,41,412710,41021,21ª RS TELEMACO BORBA,2020-09-05,36,"",1851,25,34,1,"","",0
Sul,PR,41,412710,41021,21ª RS TELEMACO BORBA,2020-09-06,37,"",1862,11,34,0,"","",0
Sul,PR,41,412710,41021,21ª RS TELEMACO BORBA,2020-09-07,37,"",1862,0,35,1,"","",0
Sul,PR,41,412710,41021,21ª RS TELEMACO BORBA,2020-09-08,37,"",1888,26,35,0,"","",0
Sul,PR,41,412710,41021,21ª RS TELEMACO BORBA,2020-09-09,37,"",1893,5,35,0,"","",0
Sul,PR,41,412710,41021,21ª RS TELEMACO BORBA,2020-09-10,37,"",1902,9,37,2,"","",0
Sul,PR,41,412710,41021,21ª RS TELEMACO BORBA,2020-09-11,37,"",1935,33,39,2,"","",0
Sul,PR,41,412710,41021,21ª RS TELEMACO BORBA,2020-09-12,37,"",1949,14,39,0,"","",0
Sul,PR,41,412710,41021,21ª RS TELEMACO BORBA,2020-09-13,38,"",1970,21,39,0,"","",0
Sul,PR,41,412710,41021,21ª RS TELEMACO BORBA,2020-09-14,38,"",1970,0,40,1,"","",0
Sul,PR,41,412710,41021,21ª RS TELEMACO BORBA,2020-09-15,38,"",1978,8,40,0,"","",0
Sul,PR,41,412710,41021,21ª RS TELEMACO BORBA,2020-09-16,38,"",2002,24,40,0,"","",0
Sul,PR,41,412710,41021,21ª RS TELEMACO BORBA,2020-09-17,38,"",2009,7,40,0,"","",0
Sul,PR,41,412710,41021,21ª RS TELEMACO BORBA,2020-09-18,38,"",2030,21,46,6,"","",0
Sul,PR,41,412710,41021,21ª RS TELEMACO BORBA,2020-09-19,38,"",2040,10,48,2,"","",0
Sul,PR,41,412710,41021,21ª RS TELEMACO BORBA,2020-09-20,39,"",2043,3,50,2,"","",0
Sul,PR,41,412710,41021,21ª RS TELEMACO BORBA,2020-09-21,39,"",2047,4,50,0,"","",0
Sul,PR,41,412710,41021,21ª RS TELEMACO BORBA,2020-09-22,39,"",2077,30,51,1,"","",0
Sul,PR,41,412710,41021,21ª RS TELEMACO BORBA,2020-09-23,39,"",2082,5,51,0,"","",0
Sul,PR,41,412710,41021,21ª RS TELEMACO BORBA,2020-09-24,39,"",2087,5,51,0,"","",0
Sul,PR,41,412710,41021,21ª RS TELEMACO BORBA,2020-09-25,39,"",2115,28,51,0,"","",0
Sul,PR,41,412710,41021,21ª RS TELEMACO BORBA,2020-09-26,39,"",2143,28,51,0,"","",0
Sul,PR,41,412710,41021,21ª RS TELEMACO BORBA,2020-09-27,40,"",2149,6,51,0,"","",0
Sul,PR,41,412710,41021,21ª RS TELEMACO BORBA,2020-09-28,40,"",2165,16,51,0,"","",0
Sul,PR,41,412710,41021,21ª RS TELEMACO BORBA,2020-09-29,40,"",2180,15,52,1,"","",0
Sul,PR,41,412710,41021,21ª RS TELEMACO BORBA,2020-09-30,40,"",2190,10,52,0,"","",0
Sul,PR,41,412710,41021,21ª RS TELEMACO BORBA,2020-10-01,40,"",2201,11,52,0,"","",0
Sul,PR,41,412710,41021,21ª RS TELEMACO BORBA,2020-10-02,40,"",2228,27,52,0,"","",0
Sul,PR,41,412710,41021,21ª RS TELEMACO BORBA,2020-10-03,40,"",2244,16,52,0,"","",0
Sul,PR,41,412710,41021,21ª RS TELEMACO BORBA,2020-10-04,41,"",2251,7,52,0,"","",0
Sul,PR,41,412710,41021,21ª RS TELEMACO BORBA,2020-10-05,41,"",2262,11,52,0,"","",0
Sul,PR,41,412710,41021,21ª RS TELEMACO BORBA,2020-10-06,41,"",2271,9,52,0,"","",0
Sul,PR,41,412710,41021,21ª RS TELEMACO BORBA,2020-10-07,41,"",2288,17,53,1,"","",0
Sul,PR,41,412710,41021,21ª RS TELEMACO BORBA,2020-10-08,41,"",2296,8,53,0,"","",0
Sul,PR,41,412710,41021,21ª RS TELEMACO BORBA,2020-10-09,41,"",2325,29,53,0,"","",0
Sul,PR,41,412710,41021,21ª RS TELEMACO BORBA,2020-10-10,41,"",2350,25,53,0,"","",0
Sul,PR,41,412710,41021,21ª RS TELEMACO BORBA,2020-10-11,42,"",2354,4,53,0,"","",0
Sul,PR,41,412710,41021,21ª RS TELEMACO BORBA,2020-10-12,42,"",2396,42,53,0,"","",0
Sul,PR,41,412710,41021,21ª RS TELEMACO BORBA,2020-10-13,42,"",2396,0,54,1,"","",0
Sul,PR,41,412710,41021,21ª RS TELEMACO BORBA,2020-10-14,42,"",2401,5,55,1,"","",0
Sul,PR,41,412710,41021,21ª RS TELEMACO BORBA,2020-10-15,42,"",2431,30,56,1,"","",0
Sul,PR,41,412710,41021,21ª RS TELEMACO BORBA,2020-10-16,42,"",2440,9,56,0,"","",0
Sul,PR,41,412710,41021,21ª RS TELEMACO BORBA,2020-10-17,42,"",2451,11,56,0,"","",0
Sul,PR,41,412710,41021,21ª RS TELEMACO BORBA,2020-10-18,43,"",2455,4,56,0,"","",0
Sul,PR,41,412710,41021,21ª RS TELEMACO BORBA,2020-10-19,43,"",2466,11,56,0,"","",0
Sul,PR,41,412710,41021,21ª RS TELEMACO BORBA,2020-10-20,43,"",2492,26,56,0,"","",0
Sul,PR,41,412710,41021,21ª RS TELEMACO BORBA,2020-10-21,43,"",2509,17,56,0,"","",0
Sul,PR,41,412710,41021,21ª RS TELEMACO BORBA,2020-10-22,43,"",2525,16,56,0,"","",0
Sul,PR,41,412710,41021,21ª RS TELEMACO BORBA,2020-10-23,43,"",2530,5,56,0,"","",0
Sul,PR,41,412710,41021,21ª RS TELEMACO BORBA,2020-10-24,43,"",2571,41,56,0,"","",0
Sul,PR,41,412710,41021,21ª RS TELEMACO BORBA,2020-10-25,44,"",2577,6,56,0,"","",0
Sul,PR,41,412710,41021,21ª RS TELEMACO BORBA,2020-10-26,44,"",2585,8,56,0,"","",0
Sul,PR,41,412710,41021,21ª RS TELEMACO BORBA,2020-10-27,44,"",2604,19,56,0,"","",0
Sul,PR,41,412710,41021,21ª RS TELEMACO BORBA,2020-10-28,44,"",2626,22,56,0,"","",0
Sul,PR,41,412710,41021,21ª RS TELEMACO BORBA,2020-10-29,44,"",2638,12,56,0,"","",0
Sul,PR,41,412710,41021,21ª RS TELEMACO BORBA,2020-10-30,44,"",2648,10,56,0,"","",0
Sul,PR,41,412710,41021,21ª RS TELEMACO BORBA,2020-10-31,44,"",2657,9,56,0,"","",0
Sul,PR,41,412710,41021,21ª RS TELEMACO BORBA,2020-11-01,45,"",2667,10,56,0,"","",0
Sul,PR,41,412710,41021,21ª RS TELEMACO BORBA,2020-11-02,45,"",2674,7,56,0,"","",0
Sul,PR,41,412710,41021,21ª RS TELEMACO BORBA,2020-11-03,45,"",2674,0,56,0,"","",0
Sul,PR,41,412710,41021,21ª RS TELEMACO BORBA,2020-11-04,45,"",2678,4,56,0,"","",0
Sul,PR,41,412710,41021,21ª RS TELEMACO BORBA,2020-11-05,45,"",2687,9,56,0,"","",0
Sul,PR,41,412710,41021,21ª RS TELEMACO BORBA,2020-11-06,45,"",2718,31,56,0,"","",0
Sul,PR,41,412710,41021,21ª RS TELEMACO BORBA,2020-11-07,45,"",2733,15,56,0,"","",0
Sul,PR,41,412710,41021,21ª RS TELEMACO BORBA,2020-11-08,46,"",2735,2,56,0,"","",0
Sul,PR,41,412710,41021,21ª RS TELEMACO BORBA,2020-11-09,46,"",2745,10,56,0,"","",0
Sul,PR,41,412710,41021,21ª RS TELEMACO BORBA,2020-11-10,46,"",2768,23,56,0,"","",0
Sul,PR,41,412710,41021,21ª RS TELEMACO BORBA,2020-11-11,46,"",2780,12,56,0,"","",0
Sul,PR,41,412710,41021,21ª RS TELEMACO BORBA,2020-11-12,46,"",2790,10,56,0,"","",0
Sul,PR,41,412710,41021,21ª RS TELEMACO BORBA,2020-11-13,46,"",2790,0,56,0,"","",0
Sul,PR,41,412710,41021,21ª RS TELEMACO BORBA,2020-11-14,46,"",3165,375,57,1,"","",0
Sul,PR,41,412710,41021,21ª RS TELEMACO BORBA,2020-11-15,47,"",3165,0,57,0,"","",0
Sul,PR,41,412710,41021,21ª RS TELEMACO BORBA,2020-11-16,47,"",3170,5,57,0,"","",0
Sul,PR,41,412710,41021,21ª RS TELEMACO BORBA,2020-11-17,47,"",3184,14,57,0,"","",0
Sul,PR,41,412710,41021,21ª RS TELEMACO BORBA,2020-11-18,47,"",3225,41,57,0,"","",0
Sul,PR,41,412710,41021,21ª RS TELEMACO BORBA,2020-11-19,47,"",3240,15,58,1,"","",0
Sul,PR,41,412710,41021,21ª RS TELEMACO BORBA,2020-11-20,47,"",3245,5,58,0,"","",0
Sul,PR,41,412710,41021,21ª RS TELEMACO BORBA,2020-11-21,47,"",3272,27,58,0,"","",0
Sul,PR,41,412710,41021,21ª RS TELEMACO BORBA,2020-11-22,48,"",3273,1,58,0,"","",0
Sul,PR,41,412710,41021,21ª RS TELEMACO BORBA,2020-11-23,48,"",3281,8,58,0,"","",0
Sul,PR,41,412710,41021,21ª RS TELEMACO BORBA,2020-11-24,48,"",3331,50,58,0,"","",0
Sul,PR,41,412710,41021,21ª RS TELEMACO BORBA,2020-11-25,48,"",3353,22,58,0,"","",0
Sul,PR,41,412710,41021,21ª RS TELEMACO BORBA,2020-11-26,48,"",3387,34,58,0,"","",0
Sul,PR,41,412710,41021,21ª RS TELEMACO BORBA,2020-11-27,48,"",3425,38,58,0,"","",0
Sul,PR,41,412710,41021,21ª RS TELEMACO BORBA,2020-11-28,48,"",3442,17,58,0,"","",0
Sul,PR,41,412710,41021,21ª RS TELEMACO BORBA,2020-11-29,49,"",3448,6,58,0,"","",0
Sul,PR,41,412710,41021,21ª RS TELEMACO BORBA,2020-11-30,49,"",3460,12,58,0,"","",0
Sul,PR,41,412710,41021,21ª RS TELEMACO BORBA,2020-12-01,49,"",3491,31,59,1,"","",0
Sul,PR,41,412710,41021,21ª RS TELEMACO BORBA,2020-12-02,49,"",3528,37,59,0,"","",0
Sul,PR,41,412710,41021,21ª RS TELEMACO BORBA,2020-12-03,49,"",3580,52,59,0,"","",0
Sul,PR,41,412710,41021,21ª RS TELEMACO BORBA,2020-12-04,49,"",3613,33,59,0,"","",0
Sul,PR,41,412710,41021,21ª RS TELEMACO BORBA,2020-12-05,49,"",3634,21,59,0,"","",0
Sul,PR,41,412710,41021,21ª RS TELEMACO BORBA,2020-12-06,50,"",3640,6,59,0,"","",0
Sul,PR,41,412710,41021,21ª RS TELEMACO BORBA,2020-12-07,50,"",3667,27,59,0,"","",0
Sul,PR,41,412710,41021,21ª RS TELEMACO BORBA,2020-12-08,50,"",3695,28,59,0,"","",0
Sul,PR,41,412710,41021,21ª RS TELEMACO BORBA,2020-12-09,50,"",3753,58,59,0,"","",0
Sul,PR,41,412710,41021,21ª RS TELEMACO BORBA,2020-12-10,50,"",3808,55,61,2,"","",0
Sul,PR,41,412710,41021,21ª RS TELEMACO BORBA,2020-12-11,50,"",3889,81,61,0,"","",0
Sul,PR,41,412710,41021,21ª RS TELEMACO BORBA,2020-12-12,50,"",3922,33,62,1,"","",0
Sul,PR,41,412710,41021,21ª RS TELEMACO BORBA,2020-12-13,51,"",3952,30,62,0,"","",0
Sul,PR,41,412710,41021,21ª RS TELEMACO BORBA,2020-12-14,51,"",3981,29,62,0,"","",0
Sul,PR,41,412710,41021,21ª RS TELEMACO BORBA,2020-12-15,51,"",4036,55,62,0,"","",0
Sul,PR,41,412710,41021,21ª RS TELEMACO BORBA,2020-12-16,51,"",4086,50,64,2,"","",0
Sul,PR,41,412710,41021,21ª RS TELEMACO BORBA,2020-12-17,51,"",4149,63,64,0,"","",0
Sul,PR,41,412710,41021,21ª RS TELEMACO BORBA,2020-12-18,51,"",4180,31,64,0,"","",0
Sul,PR,41,412710,41021,21ª RS TELEMACO BORBA,2020-12-19,51,"",4246,66,64,0,"","",0
Sul,PR,41,412710,41021,21ª RS TELEMACO BORBA,2020-12-20,52,"",4246,0,64,0,"","",0
Sul,PR,41,412710,41021,21ª RS TELEMACO BORBA,2020-12-21,52,"",4266,20,64,0,"","",0
Sul,PR,41,412710,41021,21ª RS TELEMACO BORBA,2020-12-22,52,"",4316,50,65,1,"","",0
Sul,PR,41,412710,41021,21ª RS TELEMACO BORBA,2020-12-23,52,"",4374,58,65,0,"","",0
Sul,PR,41,412710,41021,21ª RS TELEMACO BORBA,2020-12-24,52,"",4449,75,73,8,"","",0
Sul,PR,41,412710,41021,21ª RS TELEMACO BORBA,2020-12-25,52,"",4473,24,73,0,"","",0
Sul,PR,41,412710,41021,21ª RS TELEMACO BORBA,2020-12-26,52,"",4480,7,76,3,"","",0
Sul,PR,41,412710,41021,21ª RS TELEMACO BORBA,2020-12-27,53,"",4483,3,76,0,"","",0
Sul,PR,41,412710,41021,21ª RS TELEMACO BORBA,2020-12-28,53,"",4494,11,76,0,"","",0
Sul,PR,41,412710,41021,21ª RS TELEMACO BORBA,2020-12-29,53,"",4519,25,76,0,"","",0
Sul,PR,41,412710,41021,21ª RS TELEMACO BORBA,2020-12-30,53,"",4557,38,77,1,"","",0
Sul,PR,41,412710,41021,21ª RS TELEMACO BORBA,2020-12-31,53,"",4601,44,79,2,"","",0
