Sul,PR,41,412750,41021,21ª RS TELEMACO BORBA,2020-08-01,31,"",97,8,6,1,"","",0
Sul,PR,41,412750,41021,21ª RS TELEMACO BORBA,2020-08-02,32,"",101,4,7,1,"","",0
Sul,PR,41,412750,41021,21ª RS TELEMACO BORBA,2020-08-03,32,"",103,2,7,0,"","",0
Sul,PR,41,412750,41021,21ª RS TELEMACO BORBA,2020-08-04,32,"",110,7,7,0,"","",0
Sul,PR,41,412750,41021,21ª RS TELEMACO BORBA,2020-08-05,32,"",113,3,7,0,"","",0
Sul,PR,41,412750,41021,21ª RS TELEMACO BORBA,2020-08-06,32,"",114,1,7,0,"","",0
Sul,PR,41,412750,41021,21ª RS TELEMACO BORBA,2020-08-07,32,"",116,2,7,0,"","",0
Sul,PR,41,412750,41021,21ª RS TELEMACO BORBA,2020-08-08,32,"",116,0,7,0,"","",0
Sul,PR,41,412750,41021,21ª RS TELEMACO BORBA,2020-08-09,33,"",116,0,7,0,"","",0
Sul,PR,41,412750,41021,21ª RS TELEMACO BORBA,2020-08-10,33,"",125,9,7,0,"","",0
Sul,PR,41,412750,41021,21ª RS TELEMACO BORBA,2020-08-11,33,"",139,14,7,0,"","",0
Sul,PR,41,412750,41021,21ª RS TELEMACO BORBA,2020-08-12,33,"",151,12,7,0,"","",0
Sul,PR,41,412750,41021,21ª RS TELEMACO BORBA,2020-08-13,33,"",151,0,8,1,"","",0
Sul,PR,41,412750,41021,21ª RS TELEMACO BORBA,2020-08-14,33,"",157,6,8,0,"","",0
Sul,PR,41,412750,41021,21ª RS TELEMACO BORBA,2020-08-15,33,"",160,3,8,0,"","",0
Sul,PR,41,412750,41021,21ª RS TELEMACO BORBA,2020-08-16,34,"",162,2,8,0,"","",0
Sul,PR,41,412750,41021,21ª RS TELEMACO BORBA,2020-08-17,34,"",164,2,8,0,"","",0
Sul,PR,41,412750,41021,21ª RS TELEMACO BORBA,2020-08-18,34,"",169,5,8,0,"","",0
Sul,PR,41,412750,41021,21ª RS TELEMACO BORBA,2020-08-19,34,"",171,2,8,0,"","",0
Sul,PR,41,412750,41021,21ª RS TELEMACO BORBA,2020-08-20,34,"",172,1,8,0,"","",0
Sul,PR,41,412750,41021,21ª RS TELEMACO BORBA,2020-08-21,34,"",175,3,8,0,"","",0
Sul,PR,41,412750,41021,21ª RS TELEMACO BORBA,2020-08-22,34,"",179,4,8,0,"","",0
Sul,PR,41,412750,41021,21ª RS TELEMACO BORBA,2020-08-23,35,"",180,1,8,0,"","",0
Sul,PR,41,412750,41021,21ª RS TELEMACO BORBA,2020-08-24,35,"",183,3,8,0,"","",0
Sul,PR,41,412750,41021,21ª RS TELEMACO BORBA,2020-08-25,35,"",184,1,8,0,"","",0
Sul,PR,41,412750,41021,21ª RS TELEMACO BORBA,2020-08-26,35,"",185,1,9,1,"","",0
Sul,PR,41,412750,41021,21ª RS TELEMACO BORBA,2020-08-27,35,"",190,5,9,0,"","",0
Sul,PR,41,412750,41021,21ª RS TELEMACO BORBA,2020-08-28,35,"",192,2,9,0,"","",0
Sul,PR,41,412750,41021,21ª RS TELEMACO BORBA,2020-08-29,35,"",194,2,9,0,"","",0
Sul,PR,41,412750,41021,21ª RS TELEMACO BORBA,2020-08-30,36,"",202,8,9,0,"","",0
Sul,PR,41,412750,41021,21ª RS TELEMACO BORBA,2020-08-31,36,"",202,0,9,0,"","",0
Sul,PR,41,412750,41021,21ª RS TELEMACO BORBA,2020-09-01,36,"",202,0,9,0,"","",0
Sul,PR,41,412750,41021,21ª RS TELEMACO BORBA,2020-09-02,36,"",204,2,9,0,"","",0
Sul,PR,41,412750,41021,21ª RS TELEMACO BORBA,2020-09-03,36,"",208,4,9,0,"","",0
Sul,PR,41,412750,41021,21ª RS TELEMACO BORBA,2020-09-04,36,"",208,0,9,0,"","",0
Sul,PR,41,412750,41021,21ª RS TELEMACO BORBA,2020-09-05,36,"",210,2,9,0,"","",0
Sul,PR,41,412750,41021,21ª RS TELEMACO BORBA,2020-09-06,37,"",211,1,9,0,"","",0
Sul,PR,41,412750,41021,21ª RS TELEMACO BORBA,2020-09-07,37,"",211,0,9,0,"","",0
Sul,PR,41,412750,41021,21ª RS TELEMACO BORBA,2020-09-08,37,"",211,0,9,0,"","",0
Sul,PR,41,412750,41021,21ª RS TELEMACO BORBA,2020-09-09,37,"",211,0,9,0,"","",0
Sul,PR,41,412750,41021,21ª RS TELEMACO BORBA,2020-09-10,37,"",212,1,9,0,"","",0
Sul,PR,41,412750,41021,21ª RS TELEMACO BORBA,2020-09-11,37,"",216,4,9,0,"","",0
Sul,PR,41,412750,41021,21ª RS TELEMACO BORBA,2020-09-12,37,"",217,1,9,0,"","",0
Sul,PR,41,412750,41021,21ª RS TELEMACO BORBA,2020-09-13,38,"",218,1,9,0,"","",0
Sul,PR,41,412750,41021,21ª RS TELEMACO BORBA,2020-09-14,38,"",218,0,9,0,"","",0
Sul,PR,41,412750,41021,21ª RS TELEMACO BORBA,2020-09-15,38,"",218,0,9,0,"","",0
Sul,PR,41,412750,41021,21ª RS TELEMACO BORBA,2020-09-16,38,"",221,3,10,1,"","",0
Sul,PR,41,412750,41021,21ª RS TELEMACO BORBA,2020-09-17,38,"",221,0,10,0,"","",0
Sul,PR,41,412750,41021,21ª RS TELEMACO BORBA,2020-09-18,38,"",222,1,11,1,"","",0
Sul,PR,41,412750,41021,21ª RS TELEMACO BORBA,2020-09-19,38,"",222,0,11,0,"","",0
Sul,PR,41,412750,41021,21ª RS TELEMACO BORBA,2020-09-20,39,"",224,2,11,0,"","",0
Sul,PR,41,412750,41021,21ª RS TELEMACO BORBA,2020-09-21,39,"",227,3,11,0,"","",0
Sul,PR,41,412750,41021,21ª RS TELEMACO BORBA,2020-09-22,39,"",230,3,11,0,"","",0
Sul,PR,41,412750,41021,21ª RS TELEMACO BORBA,2020-09-23,39,"",230,0,11,0,"","",0
Sul,PR,41,412750,41021,21ª RS TELEMACO BORBA,2020-09-24,39,"",235,5,11,0,"","",0
Sul,PR,41,412750,41021,21ª RS TELEMACO BORBA,2020-09-25,39,"",237,2,11,0,"","",0
Sul,PR,41,412750,41021,21ª RS TELEMACO BORBA,2020-09-26,39,"",238,1,11,0,"","",0
Sul,PR,41,412750,41021,21ª RS TELEMACO BORBA,2020-09-27,40,"",239,1,11,0,"","",0
Sul,PR,41,412750,41021,21ª RS TELEMACO BORBA,2020-09-28,40,"",240,1,11,0,"","",0
Sul,PR,41,412750,41021,21ª RS TELEMACO BORBA,2020-09-29,40,"",240,0,11,0,"","",0
Sul,PR,41,412750,41021,21ª RS TELEMACO BORBA,2020-09-30,40,"",240,0,11,0,"","",0
Sul,PR,41,412750,41021,21ª RS TELEMACO BORBA,2020-10-01,40,"",240,0,11,0,"","",0
Sul,PR,41,412750,41021,21ª RS TELEMACO BORBA,2020-10-02,40,"",241,1,12,1,"","",0
Sul,PR,41,412750,41021,21ª RS TELEMACO BORBA,2020-10-03,40,"",242,1,12,0,"","",0
Sul,PR,41,412750,41021,21ª RS TELEMACO BORBA,2020-10-04,41,"",244,2,12,0,"","",0
Sul,PR,41,412750,41021,21ª RS TELEMACO BORBA,2020-10-05,41,"",245,1,12,0,"","",0
Sul,PR,41,412750,41021,21ª RS TELEMACO BORBA,2020-10-06,41,"",246,1,13,1,"","",0
Sul,PR,41,412750,41021,21ª RS TELEMACO BORBA,2020-10-07,41,"",247,1,13,0,"","",0
Sul,PR,41,412750,41021,21ª RS TELEMACO BORBA,2020-10-08,41,"",247,0,13,0,"","",0
Sul,PR,41,412750,41021,21ª RS TELEMACO BORBA,2020-10-09,41,"",250,3,13,0,"","",0
Sul,PR,41,412750,41021,21ª RS TELEMACO BORBA,2020-10-10,41,"",251,1,13,0,"","",0
Sul,PR,41,412750,41021,21ª RS TELEMACO BORBA,2020-10-11,42,"",251,0,13,0,"","",0
Sul,PR,41,412750,41021,21ª RS TELEMACO BORBA,2020-10-12,42,"",251,0,13,0,"","",0
Sul,PR,41,412750,41021,21ª RS TELEMACO BORBA,2020-10-13,42,"",252,1,13,0,"","",0
Sul,PR,41,412750,41021,21ª RS TELEMACO BORBA,2020-10-14,42,"",252,0,13,0,"","",0
Sul,PR,41,412750,41021,21ª RS TELEMACO BORBA,2020-10-15,42,"",252,0,13,0,"","",0
Sul,PR,41,412750,41021,21ª RS TELEMACO BORBA,2020-10-16,42,"",252,0,13,0,"","",0
Sul,PR,41,412750,41021,21ª RS TELEMACO BORBA,2020-10-17,42,"",253,1,13,0,"","",0
Sul,PR,41,412750,41021,21ª RS TELEMACO BORBA,2020-10-18,43,"",254,1,13,0,"","",0
Sul,PR,41,412750,41021,21ª RS TELEMACO BORBA,2020-10-19,43,"",254,0,13,0,"","",0
Sul,PR,41,412750,41021,21ª RS TELEMACO BORBA,2020-10-20,43,"",255,1,13,0,"","",0
Sul,PR,41,412750,41021,21ª RS TELEMACO BORBA,2020-10-21,43,"",258,3,13,0,"","",0
Sul,PR,41,412750,41021,21ª RS TELEMACO BORBA,2020-10-22,43,"",261,3,13,0,"","",0
Sul,PR,41,412750,41021,21ª RS TELEMACO BORBA,2020-10-23,43,"",262,1,13,0,"","",0
Sul,PR,41,412750,41021,21ª RS TELEMACO BORBA,2020-10-24,43,"",263,1,13,0,"","",0
Sul,PR,41,412750,41021,21ª RS TELEMACO BORBA,2020-10-25,44,"",265,2,13,0,"","",0
Sul,PR,41,412750,41021,21ª RS TELEMACO BORBA,2020-10-26,44,"",265,0,13,0,"","",0
Sul,PR,41,412750,41021,21ª RS TELEMACO BORBA,2020-10-27,44,"",268,3,13,0,"","",0
Sul,PR,41,412750,41021,21ª RS TELEMACO BORBA,2020-10-28,44,"",269,1,13,0,"","",0
Sul,PR,41,412750,41021,21ª RS TELEMACO BORBA,2020-10-29,44,"",269,0,13,0,"","",0
Sul,PR,41,412750,41021,21ª RS TELEMACO BORBA,2020-10-30,44,"",269,0,13,0,"","",0
Sul,PR,41,412750,41021,21ª RS TELEMACO BORBA,2020-10-31,44,"",271,2,13,0,"","",0
Sul,PR,41,412750,41021,21ª RS TELEMACO BORBA,2020-11-01,45,"",271,0,13,0,"","",0
Sul,PR,41,412750,41021,21ª RS TELEMACO BORBA,2020-11-02,45,"",271,0,13,0,"","",0
Sul,PR,41,412750,41021,21ª RS TELEMACO BORBA,2020-11-03,45,"",274,3,13,0,"","",0
Sul,PR,41,412750,41021,21ª RS TELEMACO BORBA,2020-11-04,45,"",279,5,13,0,"","",0
Sul,PR,41,412750,41021,21ª RS TELEMACO BORBA,2020-11-05,45,"",282,3,13,0,"","",0
Sul,PR,41,412750,41021,21ª RS TELEMACO BORBA,2020-11-06,45,"",284,2,13,0,"","",0
Sul,PR,41,412750,41021,21ª RS TELEMACO BORBA,2020-11-07,45,"",284,0,13,0,"","",0
Sul,PR,41,412750,41021,21ª RS TELEMACO BORBA,2020-11-08,46,"",289,5,13,0,"","",0
Sul,PR,41,412750,41021,21ª RS TELEMACO BORBA,2020-11-09,46,"",289,0,13,0,"","",0
Sul,PR,41,412750,41021,21ª RS TELEMACO BORBA,2020-11-10,46,"",295,6,14,1,"","",0
Sul,PR,41,412750,41021,21ª RS TELEMACO BORBA,2020-11-11,46,"",303,8,14,0,"","",0
Sul,PR,41,412750,41021,21ª RS TELEMACO BORBA,2020-11-12,46,"",306,3,14,0,"","",0
Sul,PR,41,412750,41021,21ª RS TELEMACO BORBA,2020-11-13,46,"",306,0,14,0,"","",0
Sul,PR,41,412750,41021,21ª RS TELEMACO BORBA,2020-11-14,46,"",314,8,14,0,"","",0
Sul,PR,41,412750,41021,21ª RS TELEMACO BORBA,2020-11-15,47,"",314,0,14,0,"","",0
Sul,PR,41,412750,41021,21ª RS TELEMACO BORBA,2020-11-16,47,"",334,20,14,0,"","",0
Sul,PR,41,412750,41021,21ª RS TELEMACO BORBA,2020-11-17,47,"",336,2,14,0,"","",0
Sul,PR,41,412750,41021,21ª RS TELEMACO BORBA,2020-11-18,47,"",340,4,14,0,"","",0
Sul,PR,41,412750,41021,21ª RS TELEMACO BORBA,2020-11-19,47,"",347,7,14,0,"","",0
Sul,PR,41,412750,41021,21ª RS TELEMACO BORBA,2020-11-20,47,"",347,0,14,0,"","",0
Sul,PR,41,412750,41021,21ª RS TELEMACO BORBA,2020-11-21,47,"",347,0,14,0,"","",0
Sul,PR,41,412750,41021,21ª RS TELEMACO BORBA,2020-11-22,48,"",347,0,14,0,"","",0
Sul,PR,41,412750,41021,21ª RS TELEMACO BORBA,2020-11-23,48,"",347,0,14,0,"","",0
Sul,PR,41,412750,41021,21ª RS TELEMACO BORBA,2020-11-24,48,"",350,3,14,0,"","",0
Sul,PR,41,412750,41021,21ª RS TELEMACO BORBA,2020-11-25,48,"",373,23,14,0,"","",0
Sul,PR,41,412750,41021,21ª RS TELEMACO BORBA,2020-11-26,48,"",379,6,14,0,"","",0
Sul,PR,41,412750,41021,21ª RS TELEMACO BORBA,2020-11-27,48,"",380,1,14,0,"","",0
Sul,PR,41,412750,41021,21ª RS TELEMACO BORBA,2020-11-28,48,"",380,0,14,0,"","",0
Sul,PR,41,412750,41021,21ª RS TELEMACO BORBA,2020-11-29,49,"",380,0,14,0,"","",0
Sul,PR,41,412750,41021,21ª RS TELEMACO BORBA,2020-11-30,49,"",398,18,14,0,"","",0
Sul,PR,41,412750,41021,21ª RS TELEMACO BORBA,2020-12-01,49,"",405,7,14,0,"","",0
Sul,PR,41,412750,41021,21ª RS TELEMACO BORBA,2020-12-02,49,"",411,6,14,0,"","",0
Sul,PR,41,412750,41021,21ª RS TELEMACO BORBA,2020-12-03,49,"",413,2,17,3,"","",0
Sul,PR,41,412750,41021,21ª RS TELEMACO BORBA,2020-12-04,49,"",418,5,17,0,"","",0
Sul,PR,41,412750,41021,21ª RS TELEMACO BORBA,2020-12-05,49,"",418,0,17,0,"","",0
Sul,PR,41,412750,41021,21ª RS TELEMACO BORBA,2020-12-06,50,"",418,0,17,0,"","",0
Sul,PR,41,412750,41021,21ª RS TELEMACO BORBA,2020-12-07,50,"",432,14,17,0,"","",0
Sul,PR,41,412750,41021,21ª RS TELEMACO BORBA,2020-12-08,50,"",446,14,17,0,"","",0
Sul,PR,41,412750,41021,21ª RS TELEMACO BORBA,2020-12-09,50,"",449,3,17,0,"","",0
Sul,PR,41,412750,41021,21ª RS TELEMACO BORBA,2020-12-10,50,"",449,0,17,0,"","",0
Sul,PR,41,412750,41021,21ª RS TELEMACO BORBA,2020-12-11,50,"",452,3,17,0,"","",0
Sul,PR,41,412750,41021,21ª RS TELEMACO BORBA,2020-12-12,50,"",462,10,17,0,"","",0
Sul,PR,41,412750,41021,21ª RS TELEMACO BORBA,2020-12-13,51,"",462,0,17,0,"","",0
Sul,PR,41,412750,41021,21ª RS TELEMACO BORBA,2020-12-14,51,"",476,14,17,0,"","",0
Sul,PR,41,412750,41021,21ª RS TELEMACO BORBA,2020-12-15,51,"",478,2,17,0,"","",0
Sul,PR,41,412750,41021,21ª RS TELEMACO BORBA,2020-12-16,51,"",492,14,17,0,"","",0
Sul,PR,41,412750,41021,21ª RS TELEMACO BORBA,2020-12-17,51,"",497,5,17,0,"","",0
Sul,PR,41,412750,41021,21ª RS TELEMACO BORBA,2020-12-18,51,"",504,7,17,0,"","",0
Sul,PR,41,412750,41021,21ª RS TELEMACO BORBA,2020-12-19,51,"",504,0,17,0,"","",0
Sul,PR,41,412750,41021,21ª RS TELEMACO BORBA,2020-12-20,52,"",504,0,17,0,"","",0
Sul,PR,41,412750,41021,21ª RS TELEMACO BORBA,2020-12-21,52,"",511,7,17,0,"","",0
Sul,PR,41,412750,41021,21ª RS TELEMACO BORBA,2020-12-22,52,"",512,1,17,0,"","",0
Sul,PR,41,412750,41021,21ª RS TELEMACO BORBA,2020-12-23,52,"",515,3,17,0,"","",0
Sul,PR,41,412750,41021,21ª RS TELEMACO BORBA,2020-12-24,52,"",516,1,17,0,"","",0
Sul,PR,41,412750,41021,21ª RS TELEMACO BORBA,2020-12-25,52,"",517,1,17,0,"","",0
Sul,PR,41,412750,41021,21ª RS TELEMACO BORBA,2020-12-26,52,"",517,0,17,0,"","",0
Sul,PR,41,412750,41021,21ª RS TELEMACO BORBA,2020-12-27,53,"",517,0,17,0,"","",0
Sul,PR,41,412750,41021,21ª RS TELEMACO BORBA,2020-12-28,53,"",517,0,17,0,"","",0
Sul,PR,41,412750,41021,21ª RS TELEMACO BORBA,2020-12-29,53,"",518,1,17,0,"","",0
Sul,PR,41,412750,41021,21ª RS TELEMACO BORBA,2020-12-30,53,"",520,2,17,0,"","",0
Sul,PR,41,412750,41021,21ª RS TELEMACO BORBA,2020-12-31,53,"",530,10,17,0,"","",0
